
  Mrv1823 04162023282D          

 49 51  0  0  1  0            999 V2000
   12.8417    1.5924    0.0000 C   0  0  0  0  0  0  0  0  0  0  0  0
   13.6566    1.7207    0.0000 O   0  0  0  0  0  0  0  0  0  0  0  0
   14.0305    0.9853    0.0000 N   0  0  0  0  0  0  0  0  0  0  0  0
   13.4466    0.4025    0.0000 C   0  0  0  0  0  0  0  0  0  0  0  0
   12.7119    0.7777    0.0000 C   0  0  0  0  0  0  0  0  0  0  0  0
   12.2588    2.1763    0.0000 C   0  0  0  0  0  0  0  0  0  0  0  0
   13.5749   -0.4125    0.0000 C   0  0  0  0  0  0  0  0  0  0  0  0
   12.9333   -0.9311    0.0000 O   0  0  0  0  0  0  0  0  0  0  0  0
   14.3449   -0.7088    0.0000 N   0  0  0  0  0  0  0  0  0  0  0  0
   14.9865   -0.1902    0.0000 C   0  0  2  0  0  0  0  0  0  0  0  0
   14.8582    0.6247    0.0000 C   0  0  0  0  0  0  0  0  0  0  0  0
   15.7564   -0.4866    0.0000 C   0  0  0  0  0  0  0  0  0  0  0  0
   15.8848   -1.3015    0.0000 O   0  0  0  0  0  0  0  0  0  0  0  0
   16.3980    0.0320    0.0000 N   0  0  0  0  0  0  0  0  0  0  0  0
   17.1680   -0.2643    0.0000 C   0  0  2  0  0  0  0  0  0  0  0  0
   17.2963   -1.0793    0.0000 C   0  0  0  0  0  0  0  0  0  0  0  0
   18.0662   -1.3756    0.0000 C   0  0  0  0  0  0  0  0  0  0  0  0
   16.6547   -1.5979    0.0000 C   0  0  0  0  0  0  0  0  0  0  0  0
   17.8096    0.2543    0.0000 C   0  0  0  0  0  0  0  0  0  0  0  0
   17.6813    1.0692    0.0000 O   0  0  0  0  0  0  0  0  0  0  0  0
   18.5795   -0.0421    0.0000 N   0  0  0  0  0  0  0  0  0  0  0  0
   19.2212    0.4765    0.0000 C   0  0  2  0  0  0  0  0  0  0  0  0
   19.0928    1.2915    0.0000 C   0  0  0  0  0  0  0  0  0  0  0  0
   19.7344    1.8101    0.0000 C   0  0  0  0  0  0  0  0  0  0  0  0
   19.6061    2.6251    0.0000 C   0  0  0  0  0  0  0  0  0  0  0  0
   20.5044    1.5138    0.0000 C   0  0  0  0  0  0  0  0  0  0  0  0
   19.9911    0.1802    0.0000 C   0  0  0  0  0  0  0  0  0  0  0  0
   20.1194   -0.6348    0.0000 O   0  0  0  0  0  0  0  0  0  0  0  0
   20.6327    0.6988    0.0000 N   0  0  0  0  0  0  0  0  0  0  0  0
   21.4026    0.4025    0.0000 C   0  0  2  0  0  0  0  0  0  0  0  0
   22.0443    0.9211    0.0000 C   0  0  0  0  0  0  0  0  0  0  0  0
   22.8142    0.6247    0.0000 C   0  0  0  0  0  0  0  0  0  0  0  0
   23.4558    1.1433    0.0000 C   0  0  0  0  0  0  0  0  0  0  0  0
   23.3275    1.9583    0.0000 O   0  0  0  0  0  0  0  0  0  0  0  0
   24.2257    0.8470    0.0000 O   0  0  0  0  0  0  0  0  0  0  0  0
   24.8674    1.3656    0.0000 C   0  0  0  0  0  0  0  0  0  0  0  0
   25.6373    1.0692    0.0000 C   0  0  0  0  0  0  0  0  0  0  0  0
   27.0488    1.2915    0.0000 C   0  0  0  0  0  0  0  0  0  0  0  0
   26.2789    1.5879    0.0000 C   0  0  0  0  0  0  0  0  0  0  0  0
   25.7656    0.2543    0.0000 C   0  0  0  0  0  0  0  0  0  0  0  0
   26.5355   -0.0421    0.0000 C   0  0  0  0  0  0  0  0  0  0  0  0
   27.1772    0.4765    0.0000 C   0  0  0  0  0  0  0  0  0  0  0  0
   21.5310   -0.4125    0.0000 C   0  0  0  0  0  0  0  0  0  0  0  0
   22.3009   -0.7088    0.0000 C   0  0  2  0  0  0  0  0  0  0  0  0
   23.3375   -1.5499    0.0000 N   0  0  0  0  0  0  0  0  0  0  0  0
   22.5137   -1.5059    0.0000 C   0  0  0  0  0  0  0  0  0  0  0  0
   22.9932   -0.2601    0.0000 C   0  0  0  0  0  0  0  0  0  0  0  0
   23.6339   -0.7799    0.0000 C   0  0  0  0  0  0  0  0  0  0  0  0
   21.9939   -2.1466    0.0000 O   0  0  0  0  0  0  0  0  0  0  0  0
  1  2  1  0  0  0  0
  2  3  1  0  0  0  0
  3  4  2  0  0  0  0
  4  5  1  0  0  0  0
  1  5  2  0  0  0  0
  1  6  1  0  0  0  0
  4  7  1  0  0  0  0
  7  8  2  0  0  0  0
  7  9  1  0  0  0  0
 10  9  1  0  0  0  0
 10 11  1  6  0  0  0
 10 12  1  0  0  0  0
 12 13  2  0  0  0  0
 12 14  1  0  0  0  0
 15 14  1  1  0  0  0
 15 16  1  0  0  0  0
 16 17  1  0  0  0  0
 16 18  1  0  0  0  0
 15 19  1  0  0  0  0
 19 20  2  0  0  0  0
 19 21  1  0  0  0  0
 22 21  1  6  0  0  0
 22 23  1  0  0  0  0
 23 24  1  0  0  0  0
 24 25  1  0  0  0  0
 24 26  1  0  0  0  0
 22 27  1  0  0  0  0
 27 28  2  0  0  0  0
 27 29  1  0  0  0  0
 30 29  1  6  0  0  0
 30 31  1  0  0  0  0
 31 32  2  0  0  0  0
 32 33  1  0  0  0  0
 33 34  2  0  0  0  0
 33 35  1  0  0  0  0
 35 36  1  0  0  0  0
 36 37  1  0  0  0  0
 38 39  2  0  0  0  0
 40 41  1  0  0  0  0
 41 42  2  0  0  0  0
 38 42  1  0  0  0  0
 39 37  1  0  0  0  0
 37 40  2  0  0  0  0
 30 43  1  0  0  0  0
 44 43  1  1  0  0  0
 45 46  1  0  0  0  0
 47 48  1  0  0  0  0
 45 48  1  0  0  0  0
 44 46  1  0  0  0  0
 44 47  1  0  0  0  0
 46 49  2  0  0  0  0
M  END
$$$$

  Mrv1823 04162023282D          

 49 51  0  0  1  0            999 V2000
   12.8417    1.5924    0.0000 C   0  0  0  0  0  0  0  0  0  0  0  0
   13.6566    1.7207    0.0000 O   0  0  0  0  0  0  0  0  0  0  0  0
   14.0305    0.9853    0.0000 N   0  0  0  0  0  0  0  0  0  0  0  0
   13.4466    0.4025    0.0000 C   0  0  0  0  0  0  0  0  0  0  0  0
   12.7119    0.7777    0.0000 C   0  0  0  0  0  0  0  0  0  0  0  0
   12.2588    2.1763    0.0000 C   0  0  0  0  0  0  0  0  0  0  0  0
   13.5749   -0.4125    0.0000 C   0  0  0  0  0  0  0  0  0  0  0  0
   12.9333   -0.9311    0.0000 O   0  0  0  0  0  0  0  0  0  0  0  0
   14.3449   -0.7088    0.0000 N   0  0  0  0  0  0  0  0  0  0  0  0
   14.9865   -0.1902    0.0000 C   0  0  2  0  0  0  0  0  0  0  0  0
   14.8582    0.6247    0.0000 C   0  0  0  0  0  0  0  0  0  0  0  0
   15.7564   -0.4866    0.0000 C   0  0  0  0  0  0  0  0  0  0  0  0
   15.8848   -1.3015    0.0000 O   0  0  0  0  0  0  0  0  0  0  0  0
   16.3980    0.0320    0.0000 N   0  0  0  0  0  0  0  0  0  0  0  0
   17.1680   -0.2643    0.0000 C   0  0  2  0  0  0  0  0  0  0  0  0
   17.2963   -1.0793    0.0000 C   0  0  0  0  0  0  0  0  0  0  0  0
   18.0662   -1.3756    0.0000 C   0  0  0  0  0  0  0  0  0  0  0  0
   16.6547   -1.5979    0.0000 C   0  0  0  0  0  0  0  0  0  0  0  0
   17.8096    0.2543    0.0000 C   0  0  0  0  0  0  0  0  0  0  0  0
   17.6813    1.0692    0.0000 O   0  0  0  0  0  0  0  0  0  0  0  0
   18.5795   -0.0421    0.0000 N   0  0  0  0  0  0  0  0  0  0  0  0
   19.2212    0.4765    0.0000 C   0  0  2  0  0  0  0  0  0  0  0  0
   19.0928    1.2915    0.0000 C   0  0  0  0  0  0  0  0  0  0  0  0
   19.7344    1.8101    0.0000 C   0  0  0  0  0  0  0  0  0  0  0  0
   19.6061    2.6251    0.0000 C   0  0  0  0  0  0  0  0  0  0  0  0
   20.5044    1.5138    0.0000 C   0  0  0  0  0  0  0  0  0  0  0  0
   19.9911    0.1802    0.0000 C   0  0  0  0  0  0  0  0  0  0  0  0
   20.1194   -0.6348    0.0000 O   0  0  0  0  0  0  0  0  0  0  0  0
   20.6327    0.6988    0.0000 N   0  0  0  0  0  0  0  0  0  0  0  0
   21.4026    0.4025    0.0000 C   0  0  2  0  0  0  0  0  0  0  0  0
   22.0443    0.9211    0.0000 C   0  0  0  0  0  0  0  0  0  0  0  0
   22.8142    0.6247    0.0000 C   0  0  0  0  0  0  0  0  0  0  0  0
   23.4558    1.1433    0.0000 C   0  0  0  0  0  0  0  0  0  0  0  0
   23.3275    1.9583    0.0000 O   0  0  0  0  0  0  0  0  0  0  0  0
   24.2257    0.8470    0.0000 O   0  0  0  0  0  0  0  0  0  0  0  0
   24.8674    1.3656    0.0000 C   0  0  0  0  0  0  0  0  0  0  0  0
   25.6373    1.0692    0.0000 C   0  0  0  0  0  0  0  0  0  0  0  0
   27.0488    1.2915    0.0000 C   0  0  0  0  0  0  0  0  0  0  0  0
   26.2789    1.5879    0.0000 C   0  0  0  0  0  0  0  0  0  0  0  0
   25.7656    0.2543    0.0000 C   0  0  0  0  0  0  0  0  0  0  0  0
   26.5355   -0.0421    0.0000 C   0  0  0  0  0  0  0  0  0  0  0  0
   27.1772    0.4765    0.0000 C   0  0  0  0  0  0  0  0  0  0  0  0
   21.5310   -0.4125    0.0000 C   0  0  0  0  0  0  0  0  0  0  0  0
   22.3009   -0.7088    0.0000 C   0  0  1  0  0  0  0  0  0  0  0  0
   23.3375   -1.5499    0.0000 N   0  0  0  0  0  0  0  0  0  0  0  0
   22.5137   -1.5059    0.0000 C   0  0  0  0  0  0  0  0  0  0  0  0
   22.9932   -0.2601    0.0000 C   0  0  0  0  0  0  0  0  0  0  0  0
   23.6339   -0.7799    0.0000 C   0  0  0  0  0  0  0  0  0  0  0  0
   21.9939   -2.1466    0.0000 O   0  0  0  0  0  0  0  0  0  0  0  0
  1  2  1  0  0  0  0
  2  3  1  0  0  0  0
  3  4  2  0  0  0  0
  4  5  1  0  0  0  0
  1  5  2  0  0  0  0
  1  6  1  0  0  0  0
  4  7  1  0  0  0  0
  7  8  2  0  0  0  0
  7  9  1  0  0  0  0
 10  9  1  0  0  0  0
 10 11  1  6  0  0  0
 10 12  1  0  0  0  0
 12 13  2  0  0  0  0
 12 14  1  0  0  0  0
 15 14  1  1  0  0  0
 15 16  1  0  0  0  0
 16 17  1  0  0  0  0
 16 18  1  0  0  0  0
 15 19  1  0  0  0  0
 19 20  2  0  0  0  0
 19 21  1  0  0  0  0
 22 21  1  6  0  0  0
 22 23  1  0  0  0  0
 23 24  1  0  0  0  0
 24 25  1  0  0  0  0
 24 26  1  0  0  0  0
 22 27  1  0  0  0  0
 27 28  2  0  0  0  0
 27 29  1  0  0  0  0
 30 29  1  6  0  0  0
 30 31  1  0  0  0  0
 31 32  2  0  0  0  0
 32 33  1  0  0  0  0
 33 34  2  0  0  0  0
 33 35  1  0  0  0  0
 35 36  1  0  0  0  0
 36 37  1  0  0  0  0
 38 39  2  0  0  0  0
 40 41  1  0  0  0  0
 41 42  2  0  0  0  0
 38 42  1  0  0  0  0
 39 37  1  0  0  0  0
 37 40  2  0  0  0  0
 30 43  1  0  0  0  0
 44 43  1  6  0  0  0
 45 46  1  0  0  0  0
 47 48  1  0  0  0  0
 45 48  1  0  0  0  0
 44 46  1  0  0  0  0
 44 47  1  0  0  0  0
 46 49  2  0  0  0  0
M  END
$$$$

  Mrv1823 04162023282D          

 49 51  0  0  1  0            999 V2000
   12.8417    1.5924    0.0000 C   0  0  0  0  0  0  0  0  0  0  0  0
   13.6566    1.7207    0.0000 O   0  0  0  0  0  0  0  0  0  0  0  0
   14.0305    0.9853    0.0000 N   0  0  0  0  0  0  0  0  0  0  0  0
   13.4466    0.4025    0.0000 C   0  0  0  0  0  0  0  0  0  0  0  0
   12.7119    0.7777    0.0000 C   0  0  0  0  0  0  0  0  0  0  0  0
   12.2588    2.1763    0.0000 C   0  0  0  0  0  0  0  0  0  0  0  0
   13.5749   -0.4125    0.0000 C   0  0  0  0  0  0  0  0  0  0  0  0
   12.9333   -0.9311    0.0000 O   0  0  0  0  0  0  0  0  0  0  0  0
   14.3449   -0.7088    0.0000 N   0  0  0  0  0  0  0  0  0  0  0  0
   14.9865   -0.1902    0.0000 C   0  0  2  0  0  0  0  0  0  0  0  0
   14.8582    0.6247    0.0000 C   0  0  0  0  0  0  0  0  0  0  0  0
   15.7564   -0.4866    0.0000 C   0  0  0  0  0  0  0  0  0  0  0  0
   15.8848   -1.3015    0.0000 O   0  0  0  0  0  0  0  0  0  0  0  0
   16.3980    0.0320    0.0000 N   0  0  0  0  0  0  0  0  0  0  0  0
   17.1680   -0.2643    0.0000 C   0  0  2  0  0  0  0  0  0  0  0  0
   17.2963   -1.0793    0.0000 C   0  0  0  0  0  0  0  0  0  0  0  0
   18.0662   -1.3756    0.0000 C   0  0  0  0  0  0  0  0  0  0  0  0
   16.6547   -1.5979    0.0000 C   0  0  0  0  0  0  0  0  0  0  0  0
   17.8096    0.2543    0.0000 C   0  0  0  0  0  0  0  0  0  0  0  0
   17.6813    1.0692    0.0000 O   0  0  0  0  0  0  0  0  0  0  0  0
   18.5795   -0.0421    0.0000 N   0  0  0  0  0  0  0  0  0  0  0  0
   19.2212    0.4765    0.0000 C   0  0  2  0  0  0  0  0  0  0  0  0
   19.0928    1.2915    0.0000 C   0  0  0  0  0  0  0  0  0  0  0  0
   19.7344    1.8101    0.0000 C   0  0  0  0  0  0  0  0  0  0  0  0
   19.6061    2.6251    0.0000 C   0  0  0  0  0  0  0  0  0  0  0  0
   20.5044    1.5138    0.0000 C   0  0  0  0  0  0  0  0  0  0  0  0
   19.9911    0.1802    0.0000 C   0  0  0  0  0  0  0  0  0  0  0  0
   20.1194   -0.6348    0.0000 O   0  0  0  0  0  0  0  0  0  0  0  0
   20.6327    0.6988    0.0000 N   0  0  0  0  0  0  0  0  0  0  0  0
   21.4026    0.4025    0.0000 C   0  0  1  0  0  0  0  0  0  0  0  0
   22.0443    0.9211    0.0000 C   0  0  0  0  0  0  0  0  0  0  0  0
   22.8142    0.6247    0.0000 C   0  0  0  0  0  0  0  0  0  0  0  0
   23.4558    1.1433    0.0000 C   0  0  0  0  0  0  0  0  0  0  0  0
   23.3275    1.9583    0.0000 O   0  0  0  0  0  0  0  0  0  0  0  0
   24.2257    0.8470    0.0000 O   0  0  0  0  0  0  0  0  0  0  0  0
   24.8674    1.3656    0.0000 C   0  0  0  0  0  0  0  0  0  0  0  0
   25.6373    1.0692    0.0000 C   0  0  0  0  0  0  0  0  0  0  0  0
   27.0488    1.2915    0.0000 C   0  0  0  0  0  0  0  0  0  0  0  0
   26.2789    1.5879    0.0000 C   0  0  0  0  0  0  0  0  0  0  0  0
   25.7656    0.2543    0.0000 C   0  0  0  0  0  0  0  0  0  0  0  0
   26.5355   -0.0421    0.0000 C   0  0  0  0  0  0  0  0  0  0  0  0
   27.1772    0.4765    0.0000 C   0  0  0  0  0  0  0  0  0  0  0  0
   21.5310   -0.4125    0.0000 C   0  0  0  0  0  0  0  0  0  0  0  0
   22.3009   -0.7088    0.0000 C   0  0  2  0  0  0  0  0  0  0  0  0
   23.3375   -1.5499    0.0000 N   0  0  0  0  0  0  0  0  0  0  0  0
   22.5137   -1.5059    0.0000 C   0  0  0  0  0  0  0  0  0  0  0  0
   22.9932   -0.2601    0.0000 C   0  0  0  0  0  0  0  0  0  0  0  0
   23.6339   -0.7799    0.0000 C   0  0  0  0  0  0  0  0  0  0  0  0
   21.9939   -2.1466    0.0000 O   0  0  0  0  0  0  0  0  0  0  0  0
  1  2  1  0  0  0  0
  2  3  1  0  0  0  0
  3  4  2  0  0  0  0
  4  5  1  0  0  0  0
  1  5  2  0  0  0  0
  1  6  1  0  0  0  0
  4  7  1  0  0  0  0
  7  8  2  0  0  0  0
  7  9  1  0  0  0  0
 10  9  1  0  0  0  0
 10 11  1  6  0  0  0
 10 12  1  0  0  0  0
 12 13  2  0  0  0  0
 12 14  1  0  0  0  0
 15 14  1  1  0  0  0
 15 16  1  0  0  0  0
 16 17  1  0  0  0  0
 16 18  1  0  0  0  0
 15 19  1  0  0  0  0
 19 20  2  0  0  0  0
 19 21  1  0  0  0  0
 22 21  1  6  0  0  0
 22 23  1  0  0  0  0
 23 24  1  0  0  0  0
 24 25  1  0  0  0  0
 24 26  1  0  0  0  0
 22 27  1  0  0  0  0
 27 28  2  0  0  0  0
 27 29  1  0  0  0  0
 30 29  1  1  0  0  0
 30 31  1  0  0  0  0
 31 32  2  0  0  0  0
 32 33  1  0  0  0  0
 33 34  2  0  0  0  0
 33 35  1  0  0  0  0
 35 36  1  0  0  0  0
 36 37  1  0  0  0  0
 38 39  2  0  0  0  0
 40 41  1  0  0  0  0
 41 42  2  0  0  0  0
 38 42  1  0  0  0  0
 39 37  1  0  0  0  0
 37 40  2  0  0  0  0
 30 43  1  0  0  0  0
 44 43  1  1  0  0  0
 45 46  1  0  0  0  0
 47 48  1  0  0  0  0
 45 48  1  0  0  0  0
 44 46  1  0  0  0  0
 44 47  1  0  0  0  0
 46 49  2  0  0  0  0
M  END
$$$$

  Mrv1823 04162023282D          

 49 51  0  0  1  0            999 V2000
   12.8417    1.5924    0.0000 C   0  0  0  0  0  0  0  0  0  0  0  0
   13.6566    1.7207    0.0000 O   0  0  0  0  0  0  0  0  0  0  0  0
   14.0305    0.9853    0.0000 N   0  0  0  0  0  0  0  0  0  0  0  0
   13.4466    0.4025    0.0000 C   0  0  0  0  0  0  0  0  0  0  0  0
   12.7119    0.7777    0.0000 C   0  0  0  0  0  0  0  0  0  0  0  0
   12.2588    2.1763    0.0000 C   0  0  0  0  0  0  0  0  0  0  0  0
   13.5749   -0.4125    0.0000 C   0  0  0  0  0  0  0  0  0  0  0  0
   12.9333   -0.9311    0.0000 O   0  0  0  0  0  0  0  0  0  0  0  0
   14.3449   -0.7088    0.0000 N   0  0  0  0  0  0  0  0  0  0  0  0
   14.9865   -0.1902    0.0000 C   0  0  2  0  0  0  0  0  0  0  0  0
   14.8582    0.6247    0.0000 C   0  0  0  0  0  0  0  0  0  0  0  0
   15.7564   -0.4866    0.0000 C   0  0  0  0  0  0  0  0  0  0  0  0
   15.8848   -1.3015    0.0000 O   0  0  0  0  0  0  0  0  0  0  0  0
   16.3980    0.0320    0.0000 N   0  0  0  0  0  0  0  0  0  0  0  0
   17.1680   -0.2643    0.0000 C   0  0  2  0  0  0  0  0  0  0  0  0
   17.2963   -1.0793    0.0000 C   0  0  0  0  0  0  0  0  0  0  0  0
   18.0662   -1.3756    0.0000 C   0  0  0  0  0  0  0  0  0  0  0  0
   16.6547   -1.5979    0.0000 C   0  0  0  0  0  0  0  0  0  0  0  0
   17.8096    0.2543    0.0000 C   0  0  0  0  0  0  0  0  0  0  0  0
   17.6813    1.0692    0.0000 O   0  0  0  0  0  0  0  0  0  0  0  0
   18.5795   -0.0421    0.0000 N   0  0  0  0  0  0  0  0  0  0  0  0
   19.2212    0.4765    0.0000 C   0  0  2  0  0  0  0  0  0  0  0  0
   19.0928    1.2915    0.0000 C   0  0  0  0  0  0  0  0  0  0  0  0
   19.7344    1.8101    0.0000 C   0  0  0  0  0  0  0  0  0  0  0  0
   19.6061    2.6251    0.0000 C   0  0  0  0  0  0  0  0  0  0  0  0
   20.5044    1.5138    0.0000 C   0  0  0  0  0  0  0  0  0  0  0  0
   19.9911    0.1802    0.0000 C   0  0  0  0  0  0  0  0  0  0  0  0
   20.1194   -0.6348    0.0000 O   0  0  0  0  0  0  0  0  0  0  0  0
   20.6327    0.6988    0.0000 N   0  0  0  0  0  0  0  0  0  0  0  0
   21.4026    0.4025    0.0000 C   0  0  1  0  0  0  0  0  0  0  0  0
   22.0443    0.9211    0.0000 C   0  0  0  0  0  0  0  0  0  0  0  0
   22.8142    0.6247    0.0000 C   0  0  0  0  0  0  0  0  0  0  0  0
   23.4558    1.1433    0.0000 C   0  0  0  0  0  0  0  0  0  0  0  0
   23.3275    1.9583    0.0000 O   0  0  0  0  0  0  0  0  0  0  0  0
   24.2257    0.8470    0.0000 O   0  0  0  0  0  0  0  0  0  0  0  0
   24.8674    1.3656    0.0000 C   0  0  0  0  0  0  0  0  0  0  0  0
   25.6373    1.0692    0.0000 C   0  0  0  0  0  0  0  0  0  0  0  0
   27.0488    1.2915    0.0000 C   0  0  0  0  0  0  0  0  0  0  0  0
   26.2789    1.5879    0.0000 C   0  0  0  0  0  0  0  0  0  0  0  0
   25.7656    0.2543    0.0000 C   0  0  0  0  0  0  0  0  0  0  0  0
   26.5355   -0.0421    0.0000 C   0  0  0  0  0  0  0  0  0  0  0  0
   27.1772    0.4765    0.0000 C   0  0  0  0  0  0  0  0  0  0  0  0
   21.5310   -0.4125    0.0000 C   0  0  0  0  0  0  0  0  0  0  0  0
   22.3009   -0.7088    0.0000 C   0  0  1  0  0  0  0  0  0  0  0  0
   23.3375   -1.5499    0.0000 N   0  0  0  0  0  0  0  0  0  0  0  0
   22.5137   -1.5059    0.0000 C   0  0  0  0  0  0  0  0  0  0  0  0
   22.9932   -0.2601    0.0000 C   0  0  0  0  0  0  0  0  0  0  0  0
   23.6339   -0.7799    0.0000 C   0  0  0  0  0  0  0  0  0  0  0  0
   21.9939   -2.1466    0.0000 O   0  0  0  0  0  0  0  0  0  0  0  0
  1  2  1  0  0  0  0
  2  3  1  0  0  0  0
  3  4  2  0  0  0  0
  4  5  1  0  0  0  0
  1  5  2  0  0  0  0
  1  6  1  0  0  0  0
  4  7  1  0  0  0  0
  7  8  2  0  0  0  0
  7  9  1  0  0  0  0
 10  9  1  0  0  0  0
 10 11  1  6  0  0  0
 10 12  1  0  0  0  0
 12 13  2  0  0  0  0
 12 14  1  0  0  0  0
 15 14  1  1  0  0  0
 15 16  1  0  0  0  0
 16 17  1  0  0  0  0
 16 18  1  0  0  0  0
 15 19  1  0  0  0  0
 19 20  2  0  0  0  0
 19 21  1  0  0  0  0
 22 21  1  6  0  0  0
 22 23  1  0  0  0  0
 23 24  1  0  0  0  0
 24 25  1  0  0  0  0
 24 26  1  0  0  0  0
 22 27  1  0  0  0  0
 27 28  2  0  0  0  0
 27 29  1  0  0  0  0
 30 29  1  1  0  0  0
 30 31  1  0  0  0  0
 31 32  2  0  0  0  0
 32 33  1  0  0  0  0
 33 34  2  0  0  0  0
 33 35  1  0  0  0  0
 35 36  1  0  0  0  0
 36 37  1  0  0  0  0
 38 39  2  0  0  0  0
 40 41  1  0  0  0  0
 41 42  2  0  0  0  0
 38 42  1  0  0  0  0
 39 37  1  0  0  0  0
 37 40  2  0  0  0  0
 30 43  1  0  0  0  0
 44 43  1  6  0  0  0
 45 46  1  0  0  0  0
 47 48  1  0  0  0  0
 45 48  1  0  0  0  0
 44 46  1  0  0  0  0
 44 47  1  0  0  0  0
 46 49  2  0  0  0  0
M  END
$$$$

  Mrv1823 04162023282D          

 49 51  0  0  1  0            999 V2000
   12.8417    1.5924    0.0000 C   0  0  0  0  0  0  0  0  0  0  0  0
   13.6566    1.7207    0.0000 O   0  0  0  0  0  0  0  0  0  0  0  0
   14.0305    0.9853    0.0000 N   0  0  0  0  0  0  0  0  0  0  0  0
   13.4466    0.4025    0.0000 C   0  0  0  0  0  0  0  0  0  0  0  0
   12.7119    0.7777    0.0000 C   0  0  0  0  0  0  0  0  0  0  0  0
   12.2588    2.1763    0.0000 C   0  0  0  0  0  0  0  0  0  0  0  0
   13.5749   -0.4125    0.0000 C   0  0  0  0  0  0  0  0  0  0  0  0
   12.9333   -0.9311    0.0000 O   0  0  0  0  0  0  0  0  0  0  0  0
   14.3449   -0.7088    0.0000 N   0  0  0  0  0  0  0  0  0  0  0  0
   14.9865   -0.1902    0.0000 C   0  0  1  0  0  0  0  0  0  0  0  0
   14.8582    0.6247    0.0000 C   0  0  0  0  0  0  0  0  0  0  0  0
   15.7564   -0.4866    0.0000 C   0  0  0  0  0  0  0  0  0  0  0  0
   15.8848   -1.3015    0.0000 O   0  0  0  0  0  0  0  0  0  0  0  0
   16.3980    0.0320    0.0000 N   0  0  0  0  0  0  0  0  0  0  0  0
   17.1680   -0.2643    0.0000 C   0  0  2  0  0  0  0  0  0  0  0  0
   17.2963   -1.0793    0.0000 C   0  0  0  0  0  0  0  0  0  0  0  0
   18.0662   -1.3756    0.0000 C   0  0  0  0  0  0  0  0  0  0  0  0
   16.6547   -1.5979    0.0000 C   0  0  0  0  0  0  0  0  0  0  0  0
   17.8096    0.2543    0.0000 C   0  0  0  0  0  0  0  0  0  0  0  0
   17.6813    1.0692    0.0000 O   0  0  0  0  0  0  0  0  0  0  0  0
   18.5795   -0.0421    0.0000 N   0  0  0  0  0  0  0  0  0  0  0  0
   19.2212    0.4765    0.0000 C   0  0  2  0  0  0  0  0  0  0  0  0
   19.0928    1.2915    0.0000 C   0  0  0  0  0  0  0  0  0  0  0  0
   19.7344    1.8101    0.0000 C   0  0  0  0  0  0  0  0  0  0  0  0
   19.6061    2.6251    0.0000 C   0  0  0  0  0  0  0  0  0  0  0  0
   20.5044    1.5138    0.0000 C   0  0  0  0  0  0  0  0  0  0  0  0
   19.9911    0.1802    0.0000 C   0  0  0  0  0  0  0  0  0  0  0  0
   20.1194   -0.6348    0.0000 O   0  0  0  0  0  0  0  0  0  0  0  0
   20.6327    0.6988    0.0000 N   0  0  0  0  0  0  0  0  0  0  0  0
   21.4026    0.4025    0.0000 C   0  0  2  0  0  0  0  0  0  0  0  0
   22.0443    0.9211    0.0000 C   0  0  0  0  0  0  0  0  0  0  0  0
   22.8142    0.6247    0.0000 C   0  0  0  0  0  0  0  0  0  0  0  0
   23.4558    1.1433    0.0000 C   0  0  0  0  0  0  0  0  0  0  0  0
   23.3275    1.9583    0.0000 O   0  0  0  0  0  0  0  0  0  0  0  0
   24.2257    0.8470    0.0000 O   0  0  0  0  0  0  0  0  0  0  0  0
   24.8674    1.3656    0.0000 C   0  0  0  0  0  0  0  0  0  0  0  0
   25.6373    1.0692    0.0000 C   0  0  0  0  0  0  0  0  0  0  0  0
   27.0488    1.2915    0.0000 C   0  0  0  0  0  0  0  0  0  0  0  0
   26.2789    1.5879    0.0000 C   0  0  0  0  0  0  0  0  0  0  0  0
   25.7656    0.2543    0.0000 C   0  0  0  0  0  0  0  0  0  0  0  0
   26.5355   -0.0421    0.0000 C   0  0  0  0  0  0  0  0  0  0  0  0
   27.1772    0.4765    0.0000 C   0  0  0  0  0  0  0  0  0  0  0  0
   21.5310   -0.4125    0.0000 C   0  0  0  0  0  0  0  0  0  0  0  0
   22.3009   -0.7088    0.0000 C   0  0  2  0  0  0  0  0  0  0  0  0
   23.3375   -1.5499    0.0000 N   0  0  0  0  0  0  0  0  0  0  0  0
   22.5137   -1.5059    0.0000 C   0  0  0  0  0  0  0  0  0  0  0  0
   22.9932   -0.2601    0.0000 C   0  0  0  0  0  0  0  0  0  0  0  0
   23.6339   -0.7799    0.0000 C   0  0  0  0  0  0  0  0  0  0  0  0
   21.9939   -2.1466    0.0000 O   0  0  0  0  0  0  0  0  0  0  0  0
  1  2  1  0  0  0  0
  2  3  1  0  0  0  0
  3  4  2  0  0  0  0
  4  5  1  0  0  0  0
  1  5  2  0  0  0  0
  1  6  1  0  0  0  0
  4  7  1  0  0  0  0
  7  8  2  0  0  0  0
  7  9  1  0  0  0  0
 10  9  1  0  0  0  0
 10 11  1  1  0  0  0
 10 12  1  0  0  0  0
 12 13  2  0  0  0  0
 12 14  1  0  0  0  0
 15 14  1  1  0  0  0
 15 16  1  0  0  0  0
 16 17  1  0  0  0  0
 16 18  1  0  0  0  0
 15 19  1  0  0  0  0
 19 20  2  0  0  0  0
 19 21  1  0  0  0  0
 22 21  1  6  0  0  0
 22 23  1  0  0  0  0
 23 24  1  0  0  0  0
 24 25  1  0  0  0  0
 24 26  1  0  0  0  0
 22 27  1  0  0  0  0
 27 28  2  0  0  0  0
 27 29  1  0  0  0  0
 30 29  1  6  0  0  0
 30 31  1  0  0  0  0
 31 32  2  0  0  0  0
 32 33  1  0  0  0  0
 33 34  2  0  0  0  0
 33 35  1  0  0  0  0
 35 36  1  0  0  0  0
 36 37  1  0  0  0  0
 38 39  2  0  0  0  0
 40 41  1  0  0  0  0
 41 42  2  0  0  0  0
 38 42  1  0  0  0  0
 39 37  1  0  0  0  0
 37 40  2  0  0  0  0
 30 43  1  0  0  0  0
 44 43  1  1  0  0  0
 45 46  1  0  0  0  0
 47 48  1  0  0  0  0
 45 48  1  0  0  0  0
 44 46  1  0  0  0  0
 44 47  1  0  0  0  0
 46 49  2  0  0  0  0
M  END
$$$$

  Mrv1823 04162023282D          

 49 51  0  0  1  0            999 V2000
   12.8417    1.5924    0.0000 C   0  0  0  0  0  0  0  0  0  0  0  0
   13.6566    1.7207    0.0000 O   0  0  0  0  0  0  0  0  0  0  0  0
   14.0305    0.9853    0.0000 N   0  0  0  0  0  0  0  0  0  0  0  0
   13.4466    0.4025    0.0000 C   0  0  0  0  0  0  0  0  0  0  0  0
   12.7119    0.7777    0.0000 C   0  0  0  0  0  0  0  0  0  0  0  0
   12.2588    2.1763    0.0000 C   0  0  0  0  0  0  0  0  0  0  0  0
   13.5749   -0.4125    0.0000 C   0  0  0  0  0  0  0  0  0  0  0  0
   12.9333   -0.9311    0.0000 O   0  0  0  0  0  0  0  0  0  0  0  0
   14.3449   -0.7088    0.0000 N   0  0  0  0  0  0  0  0  0  0  0  0
   14.9865   -0.1902    0.0000 C   0  0  1  0  0  0  0  0  0  0  0  0
   14.8582    0.6247    0.0000 C   0  0  0  0  0  0  0  0  0  0  0  0
   15.7564   -0.4866    0.0000 C   0  0  0  0  0  0  0  0  0  0  0  0
   15.8848   -1.3015    0.0000 O   0  0  0  0  0  0  0  0  0  0  0  0
   16.3980    0.0320    0.0000 N   0  0  0  0  0  0  0  0  0  0  0  0
   17.1680   -0.2643    0.0000 C   0  0  2  0  0  0  0  0  0  0  0  0
   17.2963   -1.0793    0.0000 C   0  0  0  0  0  0  0  0  0  0  0  0
   18.0662   -1.3756    0.0000 C   0  0  0  0  0  0  0  0  0  0  0  0
   16.6547   -1.5979    0.0000 C   0  0  0  0  0  0  0  0  0  0  0  0
   17.8096    0.2543    0.0000 C   0  0  0  0  0  0  0  0  0  0  0  0
   17.6813    1.0692    0.0000 O   0  0  0  0  0  0  0  0  0  0  0  0
   18.5795   -0.0421    0.0000 N   0  0  0  0  0  0  0  0  0  0  0  0
   19.2212    0.4765    0.0000 C   0  0  2  0  0  0  0  0  0  0  0  0
   19.0928    1.2915    0.0000 C   0  0  0  0  0  0  0  0  0  0  0  0
   19.7344    1.8101    0.0000 C   0  0  0  0  0  0  0  0  0  0  0  0
   19.6061    2.6251    0.0000 C   0  0  0  0  0  0  0  0  0  0  0  0
   20.5044    1.5138    0.0000 C   0  0  0  0  0  0  0  0  0  0  0  0
   19.9911    0.1802    0.0000 C   0  0  0  0  0  0  0  0  0  0  0  0
   20.1194   -0.6348    0.0000 O   0  0  0  0  0  0  0  0  0  0  0  0
   20.6327    0.6988    0.0000 N   0  0  0  0  0  0  0  0  0  0  0  0
   21.4026    0.4025    0.0000 C   0  0  2  0  0  0  0  0  0  0  0  0
   22.0443    0.9211    0.0000 C   0  0  0  0  0  0  0  0  0  0  0  0
   22.8142    0.6247    0.0000 C   0  0  0  0  0  0  0  0  0  0  0  0
   23.4558    1.1433    0.0000 C   0  0  0  0  0  0  0  0  0  0  0  0
   23.3275    1.9583    0.0000 O   0  0  0  0  0  0  0  0  0  0  0  0
   24.2257    0.8470    0.0000 O   0  0  0  0  0  0  0  0  0  0  0  0
   24.8674    1.3656    0.0000 C   0  0  0  0  0  0  0  0  0  0  0  0
   25.6373    1.0692    0.0000 C   0  0  0  0  0  0  0  0  0  0  0  0
   27.0488    1.2915    0.0000 C   0  0  0  0  0  0  0  0  0  0  0  0
   26.2789    1.5879    0.0000 C   0  0  0  0  0  0  0  0  0  0  0  0
   25.7656    0.2543    0.0000 C   0  0  0  0  0  0  0  0  0  0  0  0
   26.5355   -0.0421    0.0000 C   0  0  0  0  0  0  0  0  0  0  0  0
   27.1772    0.4765    0.0000 C   0  0  0  0  0  0  0  0  0  0  0  0
   21.5310   -0.4125    0.0000 C   0  0  0  0  0  0  0  0  0  0  0  0
   22.3009   -0.7088    0.0000 C   0  0  1  0  0  0  0  0  0  0  0  0
   23.3375   -1.5499    0.0000 N   0  0  0  0  0  0  0  0  0  0  0  0
   22.5137   -1.5059    0.0000 C   0  0  0  0  0  0  0  0  0  0  0  0
   22.9932   -0.2601    0.0000 C   0  0  0  0  0  0  0  0  0  0  0  0
   23.6339   -0.7799    0.0000 C   0  0  0  0  0  0  0  0  0  0  0  0
   21.9939   -2.1466    0.0000 O   0  0  0  0  0  0  0  0  0  0  0  0
  1  2  1  0  0  0  0
  2  3  1  0  0  0  0
  3  4  2  0  0  0  0
  4  5  1  0  0  0  0
  1  5  2  0  0  0  0
  1  6  1  0  0  0  0
  4  7  1  0  0  0  0
  7  8  2  0  0  0  0
  7  9  1  0  0  0  0
 10  9  1  0  0  0  0
 10 11  1  1  0  0  0
 10 12  1  0  0  0  0
 12 13  2  0  0  0  0
 12 14  1  0  0  0  0
 15 14  1  1  0  0  0
 15 16  1  0  0  0  0
 16 17  1  0  0  0  0
 16 18  1  0  0  0  0
 15 19  1  0  0  0  0
 19 20  2  0  0  0  0
 19 21  1  0  0  0  0
 22 21  1  6  0  0  0
 22 23  1  0  0  0  0
 23 24  1  0  0  0  0
 24 25  1  0  0  0  0
 24 26  1  0  0  0  0
 22 27  1  0  0  0  0
 27 28  2  0  0  0  0
 27 29  1  0  0  0  0
 30 29  1  6  0  0  0
 30 31  1  0  0  0  0
 31 32  2  0  0  0  0
 32 33  1  0  0  0  0
 33 34  2  0  0  0  0
 33 35  1  0  0  0  0
 35 36  1  0  0  0  0
 36 37  1  0  0  0  0
 38 39  2  0  0  0  0
 40 41  1  0  0  0  0
 41 42  2  0  0  0  0
 38 42  1  0  0  0  0
 39 37  1  0  0  0  0
 37 40  2  0  0  0  0
 30 43  1  0  0  0  0
 44 43  1  6  0  0  0
 45 46  1  0  0  0  0
 47 48  1  0  0  0  0
 45 48  1  0  0  0  0
 44 46  1  0  0  0  0
 44 47  1  0  0  0  0
 46 49  2  0  0  0  0
M  END
$$$$

  Mrv1823 04162023282D          

 49 51  0  0  1  0            999 V2000
   12.8417    1.5924    0.0000 C   0  0  0  0  0  0  0  0  0  0  0  0
   13.6566    1.7207    0.0000 O   0  0  0  0  0  0  0  0  0  0  0  0
   14.0305    0.9853    0.0000 N   0  0  0  0  0  0  0  0  0  0  0  0
   13.4466    0.4025    0.0000 C   0  0  0  0  0  0  0  0  0  0  0  0
   12.7119    0.7777    0.0000 C   0  0  0  0  0  0  0  0  0  0  0  0
   12.2588    2.1763    0.0000 C   0  0  0  0  0  0  0  0  0  0  0  0
   13.5749   -0.4125    0.0000 C   0  0  0  0  0  0  0  0  0  0  0  0
   12.9333   -0.9311    0.0000 O   0  0  0  0  0  0  0  0  0  0  0  0
   14.3449   -0.7088    0.0000 N   0  0  0  0  0  0  0  0  0  0  0  0
   14.9865   -0.1902    0.0000 C   0  0  1  0  0  0  0  0  0  0  0  0
   14.8582    0.6247    0.0000 C   0  0  0  0  0  0  0  0  0  0  0  0
   15.7564   -0.4866    0.0000 C   0  0  0  0  0  0  0  0  0  0  0  0
   15.8848   -1.3015    0.0000 O   0  0  0  0  0  0  0  0  0  0  0  0
   16.3980    0.0320    0.0000 N   0  0  0  0  0  0  0  0  0  0  0  0
   17.1680   -0.2643    0.0000 C   0  0  2  0  0  0  0  0  0  0  0  0
   17.2963   -1.0793    0.0000 C   0  0  0  0  0  0  0  0  0  0  0  0
   18.0662   -1.3756    0.0000 C   0  0  0  0  0  0  0  0  0  0  0  0
   16.6547   -1.5979    0.0000 C   0  0  0  0  0  0  0  0  0  0  0  0
   17.8096    0.2543    0.0000 C   0  0  0  0  0  0  0  0  0  0  0  0
   17.6813    1.0692    0.0000 O   0  0  0  0  0  0  0  0  0  0  0  0
   18.5795   -0.0421    0.0000 N   0  0  0  0  0  0  0  0  0  0  0  0
   19.2212    0.4765    0.0000 C   0  0  2  0  0  0  0  0  0  0  0  0
   19.0928    1.2915    0.0000 C   0  0  0  0  0  0  0  0  0  0  0  0
   19.7344    1.8101    0.0000 C   0  0  0  0  0  0  0  0  0  0  0  0
   19.6061    2.6251    0.0000 C   0  0  0  0  0  0  0  0  0  0  0  0
   20.5044    1.5138    0.0000 C   0  0  0  0  0  0  0  0  0  0  0  0
   19.9911    0.1802    0.0000 C   0  0  0  0  0  0  0  0  0  0  0  0
   20.1194   -0.6348    0.0000 O   0  0  0  0  0  0  0  0  0  0  0  0
   20.6327    0.6988    0.0000 N   0  0  0  0  0  0  0  0  0  0  0  0
   21.4026    0.4025    0.0000 C   0  0  1  0  0  0  0  0  0  0  0  0
   22.0443    0.9211    0.0000 C   0  0  0  0  0  0  0  0  0  0  0  0
   22.8142    0.6247    0.0000 C   0  0  0  0  0  0  0  0  0  0  0  0
   23.4558    1.1433    0.0000 C   0  0  0  0  0  0  0  0  0  0  0  0
   23.3275    1.9583    0.0000 O   0  0  0  0  0  0  0  0  0  0  0  0
   24.2257    0.8470    0.0000 O   0  0  0  0  0  0  0  0  0  0  0  0
   24.8674    1.3656    0.0000 C   0  0  0  0  0  0  0  0  0  0  0  0
   25.6373    1.0692    0.0000 C   0  0  0  0  0  0  0  0  0  0  0  0
   27.0488    1.2915    0.0000 C   0  0  0  0  0  0  0  0  0  0  0  0
   26.2789    1.5879    0.0000 C   0  0  0  0  0  0  0  0  0  0  0  0
   25.7656    0.2543    0.0000 C   0  0  0  0  0  0  0  0  0  0  0  0
   26.5355   -0.0421    0.0000 C   0  0  0  0  0  0  0  0  0  0  0  0
   27.1772    0.4765    0.0000 C   0  0  0  0  0  0  0  0  0  0  0  0
   21.5310   -0.4125    0.0000 C   0  0  0  0  0  0  0  0  0  0  0  0
   22.3009   -0.7088    0.0000 C   0  0  2  0  0  0  0  0  0  0  0  0
   23.3375   -1.5499    0.0000 N   0  0  0  0  0  0  0  0  0  0  0  0
   22.5137   -1.5059    0.0000 C   0  0  0  0  0  0  0  0  0  0  0  0
   22.9932   -0.2601    0.0000 C   0  0  0  0  0  0  0  0  0  0  0  0
   23.6339   -0.7799    0.0000 C   0  0  0  0  0  0  0  0  0  0  0  0
   21.9939   -2.1466    0.0000 O   0  0  0  0  0  0  0  0  0  0  0  0
  1  2  1  0  0  0  0
  2  3  1  0  0  0  0
  3  4  2  0  0  0  0
  4  5  1  0  0  0  0
  1  5  2  0  0  0  0
  1  6  1  0  0  0  0
  4  7  1  0  0  0  0
  7  8  2  0  0  0  0
  7  9  1  0  0  0  0
 10  9  1  0  0  0  0
 10 11  1  1  0  0  0
 10 12  1  0  0  0  0
 12 13  2  0  0  0  0
 12 14  1  0  0  0  0
 15 14  1  1  0  0  0
 15 16  1  0  0  0  0
 16 17  1  0  0  0  0
 16 18  1  0  0  0  0
 15 19  1  0  0  0  0
 19 20  2  0  0  0  0
 19 21  1  0  0  0  0
 22 21  1  6  0  0  0
 22 23  1  0  0  0  0
 23 24  1  0  0  0  0
 24 25  1  0  0  0  0
 24 26  1  0  0  0  0
 22 27  1  0  0  0  0
 27 28  2  0  0  0  0
 27 29  1  0  0  0  0
 30 29  1  1  0  0  0
 30 31  1  0  0  0  0
 31 32  2  0  0  0  0
 32 33  1  0  0  0  0
 33 34  2  0  0  0  0
 33 35  1  0  0  0  0
 35 36  1  0  0  0  0
 36 37  1  0  0  0  0
 38 39  2  0  0  0  0
 40 41  1  0  0  0  0
 41 42  2  0  0  0  0
 38 42  1  0  0  0  0
 39 37  1  0  0  0  0
 37 40  2  0  0  0  0
 30 43  1  0  0  0  0
 44 43  1  1  0  0  0
 45 46  1  0  0  0  0
 47 48  1  0  0  0  0
 45 48  1  0  0  0  0
 44 46  1  0  0  0  0
 44 47  1  0  0  0  0
 46 49  2  0  0  0  0
M  END
$$$$

  Mrv1823 04162023282D          

 49 51  0  0  1  0            999 V2000
   12.8417    1.5924    0.0000 C   0  0  0  0  0  0  0  0  0  0  0  0
   13.6566    1.7207    0.0000 O   0  0  0  0  0  0  0  0  0  0  0  0
   14.0305    0.9853    0.0000 N   0  0  0  0  0  0  0  0  0  0  0  0
   13.4466    0.4025    0.0000 C   0  0  0  0  0  0  0  0  0  0  0  0
   12.7119    0.7777    0.0000 C   0  0  0  0  0  0  0  0  0  0  0  0
   12.2588    2.1763    0.0000 C   0  0  0  0  0  0  0  0  0  0  0  0
   13.5749   -0.4125    0.0000 C   0  0  0  0  0  0  0  0  0  0  0  0
   12.9333   -0.9311    0.0000 O   0  0  0  0  0  0  0  0  0  0  0  0
   14.3449   -0.7088    0.0000 N   0  0  0  0  0  0  0  0  0  0  0  0
   14.9865   -0.1902    0.0000 C   0  0  1  0  0  0  0  0  0  0  0  0
   14.8582    0.6247    0.0000 C   0  0  0  0  0  0  0  0  0  0  0  0
   15.7564   -0.4866    0.0000 C   0  0  0  0  0  0  0  0  0  0  0  0
   15.8848   -1.3015    0.0000 O   0  0  0  0  0  0  0  0  0  0  0  0
   16.3980    0.0320    0.0000 N   0  0  0  0  0  0  0  0  0  0  0  0
   17.1680   -0.2643    0.0000 C   0  0  2  0  0  0  0  0  0  0  0  0
   17.2963   -1.0793    0.0000 C   0  0  0  0  0  0  0  0  0  0  0  0
   18.0662   -1.3756    0.0000 C   0  0  0  0  0  0  0  0  0  0  0  0
   16.6547   -1.5979    0.0000 C   0  0  0  0  0  0  0  0  0  0  0  0
   17.8096    0.2543    0.0000 C   0  0  0  0  0  0  0  0  0  0  0  0
   17.6813    1.0692    0.0000 O   0  0  0  0  0  0  0  0  0  0  0  0
   18.5795   -0.0421    0.0000 N   0  0  0  0  0  0  0  0  0  0  0  0
   19.2212    0.4765    0.0000 C   0  0  2  0  0  0  0  0  0  0  0  0
   19.0928    1.2915    0.0000 C   0  0  0  0  0  0  0  0  0  0  0  0
   19.7344    1.8101    0.0000 C   0  0  0  0  0  0  0  0  0  0  0  0
   19.6061    2.6251    0.0000 C   0  0  0  0  0  0  0  0  0  0  0  0
   20.5044    1.5138    0.0000 C   0  0  0  0  0  0  0  0  0  0  0  0
   19.9911    0.1802    0.0000 C   0  0  0  0  0  0  0  0  0  0  0  0
   20.1194   -0.6348    0.0000 O   0  0  0  0  0  0  0  0  0  0  0  0
   20.6327    0.6988    0.0000 N   0  0  0  0  0  0  0  0  0  0  0  0
   21.4026    0.4025    0.0000 C   0  0  1  0  0  0  0  0  0  0  0  0
   22.0443    0.9211    0.0000 C   0  0  0  0  0  0  0  0  0  0  0  0
   22.8142    0.6247    0.0000 C   0  0  0  0  0  0  0  0  0  0  0  0
   23.4558    1.1433    0.0000 C   0  0  0  0  0  0  0  0  0  0  0  0
   23.3275    1.9583    0.0000 O   0  0  0  0  0  0  0  0  0  0  0  0
   24.2257    0.8470    0.0000 O   0  0  0  0  0  0  0  0  0  0  0  0
   24.8674    1.3656    0.0000 C   0  0  0  0  0  0  0  0  0  0  0  0
   25.6373    1.0692    0.0000 C   0  0  0  0  0  0  0  0  0  0  0  0
   27.0488    1.2915    0.0000 C   0  0  0  0  0  0  0  0  0  0  0  0
   26.2789    1.5879    0.0000 C   0  0  0  0  0  0  0  0  0  0  0  0
   25.7656    0.2543    0.0000 C   0  0  0  0  0  0  0  0  0  0  0  0
   26.5355   -0.0421    0.0000 C   0  0  0  0  0  0  0  0  0  0  0  0
   27.1772    0.4765    0.0000 C   0  0  0  0  0  0  0  0  0  0  0  0
   21.5310   -0.4125    0.0000 C   0  0  0  0  0  0  0  0  0  0  0  0
   22.3009   -0.7088    0.0000 C   0  0  1  0  0  0  0  0  0  0  0  0
   23.3375   -1.5499    0.0000 N   0  0  0  0  0  0  0  0  0  0  0  0
   22.5137   -1.5059    0.0000 C   0  0  0  0  0  0  0  0  0  0  0  0
   22.9932   -0.2601    0.0000 C   0  0  0  0  0  0  0  0  0  0  0  0
   23.6339   -0.7799    0.0000 C   0  0  0  0  0  0  0  0  0  0  0  0
   21.9939   -2.1466    0.0000 O   0  0  0  0  0  0  0  0  0  0  0  0
  1  2  1  0  0  0  0
  2  3  1  0  0  0  0
  3  4  2  0  0  0  0
  4  5  1  0  0  0  0
  1  5  2  0  0  0  0
  1  6  1  0  0  0  0
  4  7  1  0  0  0  0
  7  8  2  0  0  0  0
  7  9  1  0  0  0  0
 10  9  1  0  0  0  0
 10 11  1  1  0  0  0
 10 12  1  0  0  0  0
 12 13  2  0  0  0  0
 12 14  1  0  0  0  0
 15 14  1  1  0  0  0
 15 16  1  0  0  0  0
 16 17  1  0  0  0  0
 16 18  1  0  0  0  0
 15 19  1  0  0  0  0
 19 20  2  0  0  0  0
 19 21  1  0  0  0  0
 22 21  1  6  0  0  0
 22 23  1  0  0  0  0
 23 24  1  0  0  0  0
 24 25  1  0  0  0  0
 24 26  1  0  0  0  0
 22 27  1  0  0  0  0
 27 28  2  0  0  0  0
 27 29  1  0  0  0  0
 30 29  1  1  0  0  0
 30 31  1  0  0  0  0
 31 32  2  0  0  0  0
 32 33  1  0  0  0  0
 33 34  2  0  0  0  0
 33 35  1  0  0  0  0
 35 36  1  0  0  0  0
 36 37  1  0  0  0  0
 38 39  2  0  0  0  0
 40 41  1  0  0  0  0
 41 42  2  0  0  0  0
 38 42  1  0  0  0  0
 39 37  1  0  0  0  0
 37 40  2  0  0  0  0
 30 43  1  0  0  0  0
 44 43  1  6  0  0  0
 45 46  1  0  0  0  0
 47 48  1  0  0  0  0
 45 48  1  0  0  0  0
 44 46  1  0  0  0  0
 44 47  1  0  0  0  0
 46 49  2  0  0  0  0
M  END
$$$$

  Mrv1823 04162023282D          

 49 51  0  0  1  0            999 V2000
   12.8417    1.5924    0.0000 C   0  0  0  0  0  0  0  0  0  0  0  0
   13.6566    1.7207    0.0000 O   0  0  0  0  0  0  0  0  0  0  0  0
   14.0305    0.9853    0.0000 N   0  0  0  0  0  0  0  0  0  0  0  0
   13.4466    0.4025    0.0000 C   0  0  0  0  0  0  0  0  0  0  0  0
   12.7119    0.7777    0.0000 C   0  0  0  0  0  0  0  0  0  0  0  0
   12.2588    2.1763    0.0000 C   0  0  0  0  0  0  0  0  0  0  0  0
   13.5749   -0.4125    0.0000 C   0  0  0  0  0  0  0  0  0  0  0  0
   12.9333   -0.9311    0.0000 O   0  0  0  0  0  0  0  0  0  0  0  0
   14.3449   -0.7088    0.0000 N   0  0  0  0  0  0  0  0  0  0  0  0
   14.9865   -0.1902    0.0000 C   0  0  2  0  0  0  0  0  0  0  0  0
   14.8582    0.6247    0.0000 C   0  0  0  0  0  0  0  0  0  0  0  0
   15.7564   -0.4866    0.0000 C   0  0  0  0  0  0  0  0  0  0  0  0
   15.8848   -1.3015    0.0000 O   0  0  0  0  0  0  0  0  0  0  0  0
   16.3980    0.0320    0.0000 N   0  0  0  0  0  0  0  0  0  0  0  0
   17.1680   -0.2643    0.0000 C   0  0  2  0  0  0  0  0  0  0  0  0
   17.2963   -1.0793    0.0000 C   0  0  0  0  0  0  0  0  0  0  0  0
   18.0662   -1.3756    0.0000 C   0  0  0  0  0  0  0  0  0  0  0  0
   16.6547   -1.5979    0.0000 C   0  0  0  0  0  0  0  0  0  0  0  0
   17.8096    0.2543    0.0000 C   0  0  0  0  0  0  0  0  0  0  0  0
   17.6813    1.0692    0.0000 O   0  0  0  0  0  0  0  0  0  0  0  0
   18.5795   -0.0421    0.0000 N   0  0  0  0  0  0  0  0  0  0  0  0
   19.2212    0.4765    0.0000 C   0  0  1  0  0  0  0  0  0  0  0  0
   19.0928    1.2915    0.0000 C   0  0  0  0  0  0  0  0  0  0  0  0
   19.7344    1.8101    0.0000 C   0  0  0  0  0  0  0  0  0  0  0  0
   19.6061    2.6251    0.0000 C   0  0  0  0  0  0  0  0  0  0  0  0
   20.5044    1.5138    0.0000 C   0  0  0  0  0  0  0  0  0  0  0  0
   19.9911    0.1802    0.0000 C   0  0  0  0  0  0  0  0  0  0  0  0
   20.1194   -0.6348    0.0000 O   0  0  0  0  0  0  0  0  0  0  0  0
   20.6327    0.6988    0.0000 N   0  0  0  0  0  0  0  0  0  0  0  0
   21.4026    0.4025    0.0000 C   0  0  2  0  0  0  0  0  0  0  0  0
   22.0443    0.9211    0.0000 C   0  0  0  0  0  0  0  0  0  0  0  0
   22.8142    0.6247    0.0000 C   0  0  0  0  0  0  0  0  0  0  0  0
   23.4558    1.1433    0.0000 C   0  0  0  0  0  0  0  0  0  0  0  0
   23.3275    1.9583    0.0000 O   0  0  0  0  0  0  0  0  0  0  0  0
   24.2257    0.8470    0.0000 O   0  0  0  0  0  0  0  0  0  0  0  0
   24.8674    1.3656    0.0000 C   0  0  0  0  0  0  0  0  0  0  0  0
   25.6373    1.0692    0.0000 C   0  0  0  0  0  0  0  0  0  0  0  0
   27.0488    1.2915    0.0000 C   0  0  0  0  0  0  0  0  0  0  0  0
   26.2789    1.5879    0.0000 C   0  0  0  0  0  0  0  0  0  0  0  0
   25.7656    0.2543    0.0000 C   0  0  0  0  0  0  0  0  0  0  0  0
   26.5355   -0.0421    0.0000 C   0  0  0  0  0  0  0  0  0  0  0  0
   27.1772    0.4765    0.0000 C   0  0  0  0  0  0  0  0  0  0  0  0
   21.5310   -0.4125    0.0000 C   0  0  0  0  0  0  0  0  0  0  0  0
   22.3009   -0.7088    0.0000 C   0  0  2  0  0  0  0  0  0  0  0  0
   23.3375   -1.5499    0.0000 N   0  0  0  0  0  0  0  0  0  0  0  0
   22.5137   -1.5059    0.0000 C   0  0  0  0  0  0  0  0  0  0  0  0
   22.9932   -0.2601    0.0000 C   0  0  0  0  0  0  0  0  0  0  0  0
   23.6339   -0.7799    0.0000 C   0  0  0  0  0  0  0  0  0  0  0  0
   21.9939   -2.1466    0.0000 O   0  0  0  0  0  0  0  0  0  0  0  0
  1  2  1  0  0  0  0
  2  3  1  0  0  0  0
  3  4  2  0  0  0  0
  4  5  1  0  0  0  0
  1  5  2  0  0  0  0
  1  6  1  0  0  0  0
  4  7  1  0  0  0  0
  7  8  2  0  0  0  0
  7  9  1  0  0  0  0
 10  9  1  0  0  0  0
 10 11  1  6  0  0  0
 10 12  1  0  0  0  0
 12 13  2  0  0  0  0
 12 14  1  0  0  0  0
 15 14  1  1  0  0  0
 15 16  1  0  0  0  0
 16 17  1  0  0  0  0
 16 18  1  0  0  0  0
 15 19  1  0  0  0  0
 19 20  2  0  0  0  0
 19 21  1  0  0  0  0
 22 21  1  1  0  0  0
 22 23  1  0  0  0  0
 23 24  1  0  0  0  0
 24 25  1  0  0  0  0
 24 26  1  0  0  0  0
 22 27  1  0  0  0  0
 27 28  2  0  0  0  0
 27 29  1  0  0  0  0
 30 29  1  6  0  0  0
 30 31  1  0  0  0  0
 31 32  2  0  0  0  0
 32 33  1  0  0  0  0
 33 34  2  0  0  0  0
 33 35  1  0  0  0  0
 35 36  1  0  0  0  0
 36 37  1  0  0  0  0
 38 39  2  0  0  0  0
 40 41  1  0  0  0  0
 41 42  2  0  0  0  0
 38 42  1  0  0  0  0
 39 37  1  0  0  0  0
 37 40  2  0  0  0  0
 30 43  1  0  0  0  0
 44 43  1  1  0  0  0
 45 46  1  0  0  0  0
 47 48  1  0  0  0  0
 45 48  1  0  0  0  0
 44 46  1  0  0  0  0
 44 47  1  0  0  0  0
 46 49  2  0  0  0  0
M  END
$$$$

  Mrv1823 04162023282D          

 49 51  0  0  1  0            999 V2000
   12.8417    1.5924    0.0000 C   0  0  0  0  0  0  0  0  0  0  0  0
   13.6566    1.7207    0.0000 O   0  0  0  0  0  0  0  0  0  0  0  0
   14.0305    0.9853    0.0000 N   0  0  0  0  0  0  0  0  0  0  0  0
   13.4466    0.4025    0.0000 C   0  0  0  0  0  0  0  0  0  0  0  0
   12.7119    0.7777    0.0000 C   0  0  0  0  0  0  0  0  0  0  0  0
   12.2588    2.1763    0.0000 C   0  0  0  0  0  0  0  0  0  0  0  0
   13.5749   -0.4125    0.0000 C   0  0  0  0  0  0  0  0  0  0  0  0
   12.9333   -0.9311    0.0000 O   0  0  0  0  0  0  0  0  0  0  0  0
   14.3449   -0.7088    0.0000 N   0  0  0  0  0  0  0  0  0  0  0  0
   14.9865   -0.1902    0.0000 C   0  0  2  0  0  0  0  0  0  0  0  0
   14.8582    0.6247    0.0000 C   0  0  0  0  0  0  0  0  0  0  0  0
   15.7564   -0.4866    0.0000 C   0  0  0  0  0  0  0  0  0  0  0  0
   15.8848   -1.3015    0.0000 O   0  0  0  0  0  0  0  0  0  0  0  0
   16.3980    0.0320    0.0000 N   0  0  0  0  0  0  0  0  0  0  0  0
   17.1680   -0.2643    0.0000 C   0  0  2  0  0  0  0  0  0  0  0  0
   17.2963   -1.0793    0.0000 C   0  0  0  0  0  0  0  0  0  0  0  0
   18.0662   -1.3756    0.0000 C   0  0  0  0  0  0  0  0  0  0  0  0
   16.6547   -1.5979    0.0000 C   0  0  0  0  0  0  0  0  0  0  0  0
   17.8096    0.2543    0.0000 C   0  0  0  0  0  0  0  0  0  0  0  0
   17.6813    1.0692    0.0000 O   0  0  0  0  0  0  0  0  0  0  0  0
   18.5795   -0.0421    0.0000 N   0  0  0  0  0  0  0  0  0  0  0  0
   19.2212    0.4765    0.0000 C   0  0  1  0  0  0  0  0  0  0  0  0
   19.0928    1.2915    0.0000 C   0  0  0  0  0  0  0  0  0  0  0  0
   19.7344    1.8101    0.0000 C   0  0  0  0  0  0  0  0  0  0  0  0
   19.6061    2.6251    0.0000 C   0  0  0  0  0  0  0  0  0  0  0  0
   20.5044    1.5138    0.0000 C   0  0  0  0  0  0  0  0  0  0  0  0
   19.9911    0.1802    0.0000 C   0  0  0  0  0  0  0  0  0  0  0  0
   20.1194   -0.6348    0.0000 O   0  0  0  0  0  0  0  0  0  0  0  0
   20.6327    0.6988    0.0000 N   0  0  0  0  0  0  0  0  0  0  0  0
   21.4026    0.4025    0.0000 C   0  0  2  0  0  0  0  0  0  0  0  0
   22.0443    0.9211    0.0000 C   0  0  0  0  0  0  0  0  0  0  0  0
   22.8142    0.6247    0.0000 C   0  0  0  0  0  0  0  0  0  0  0  0
   23.4558    1.1433    0.0000 C   0  0  0  0  0  0  0  0  0  0  0  0
   23.3275    1.9583    0.0000 O   0  0  0  0  0  0  0  0  0  0  0  0
   24.2257    0.8470    0.0000 O   0  0  0  0  0  0  0  0  0  0  0  0
   24.8674    1.3656    0.0000 C   0  0  0  0  0  0  0  0  0  0  0  0
   25.6373    1.0692    0.0000 C   0  0  0  0  0  0  0  0  0  0  0  0
   27.0488    1.2915    0.0000 C   0  0  0  0  0  0  0  0  0  0  0  0
   26.2789    1.5879    0.0000 C   0  0  0  0  0  0  0  0  0  0  0  0
   25.7656    0.2543    0.0000 C   0  0  0  0  0  0  0  0  0  0  0  0
   26.5355   -0.0421    0.0000 C   0  0  0  0  0  0  0  0  0  0  0  0
   27.1772    0.4765    0.0000 C   0  0  0  0  0  0  0  0  0  0  0  0
   21.5310   -0.4125    0.0000 C   0  0  0  0  0  0  0  0  0  0  0  0
   22.3009   -0.7088    0.0000 C   0  0  1  0  0  0  0  0  0  0  0  0
   23.3375   -1.5499    0.0000 N   0  0  0  0  0  0  0  0  0  0  0  0
   22.5137   -1.5059    0.0000 C   0  0  0  0  0  0  0  0  0  0  0  0
   22.9932   -0.2601    0.0000 C   0  0  0  0  0  0  0  0  0  0  0  0
   23.6339   -0.7799    0.0000 C   0  0  0  0  0  0  0  0  0  0  0  0
   21.9939   -2.1466    0.0000 O   0  0  0  0  0  0  0  0  0  0  0  0
  1  2  1  0  0  0  0
  2  3  1  0  0  0  0
  3  4  2  0  0  0  0
  4  5  1  0  0  0  0
  1  5  2  0  0  0  0
  1  6  1  0  0  0  0
  4  7  1  0  0  0  0
  7  8  2  0  0  0  0
  7  9  1  0  0  0  0
 10  9  1  0  0  0  0
 10 11  1  6  0  0  0
 10 12  1  0  0  0  0
 12 13  2  0  0  0  0
 12 14  1  0  0  0  0
 15 14  1  1  0  0  0
 15 16  1  0  0  0  0
 16 17  1  0  0  0  0
 16 18  1  0  0  0  0
 15 19  1  0  0  0  0
 19 20  2  0  0  0  0
 19 21  1  0  0  0  0
 22 21  1  1  0  0  0
 22 23  1  0  0  0  0
 23 24  1  0  0  0  0
 24 25  1  0  0  0  0
 24 26  1  0  0  0  0
 22 27  1  0  0  0  0
 27 28  2  0  0  0  0
 27 29  1  0  0  0  0
 30 29  1  6  0  0  0
 30 31  1  0  0  0  0
 31 32  2  0  0  0  0
 32 33  1  0  0  0  0
 33 34  2  0  0  0  0
 33 35  1  0  0  0  0
 35 36  1  0  0  0  0
 36 37  1  0  0  0  0
 38 39  2  0  0  0  0
 40 41  1  0  0  0  0
 41 42  2  0  0  0  0
 38 42  1  0  0  0  0
 39 37  1  0  0  0  0
 37 40  2  0  0  0  0
 30 43  1  0  0  0  0
 44 43  1  6  0  0  0
 45 46  1  0  0  0  0
 47 48  1  0  0  0  0
 45 48  1  0  0  0  0
 44 46  1  0  0  0  0
 44 47  1  0  0  0  0
 46 49  2  0  0  0  0
M  END
$$$$

  Mrv1823 04162023282D          

 49 51  0  0  1  0            999 V2000
   12.8417    1.5924    0.0000 C   0  0  0  0  0  0  0  0  0  0  0  0
   13.6566    1.7207    0.0000 O   0  0  0  0  0  0  0  0  0  0  0  0
   14.0305    0.9853    0.0000 N   0  0  0  0  0  0  0  0  0  0  0  0
   13.4466    0.4025    0.0000 C   0  0  0  0  0  0  0  0  0  0  0  0
   12.7119    0.7777    0.0000 C   0  0  0  0  0  0  0  0  0  0  0  0
   12.2588    2.1763    0.0000 C   0  0  0  0  0  0  0  0  0  0  0  0
   13.5749   -0.4125    0.0000 C   0  0  0  0  0  0  0  0  0  0  0  0
   12.9333   -0.9311    0.0000 O   0  0  0  0  0  0  0  0  0  0  0  0
   14.3449   -0.7088    0.0000 N   0  0  0  0  0  0  0  0  0  0  0  0
   14.9865   -0.1902    0.0000 C   0  0  2  0  0  0  0  0  0  0  0  0
   14.8582    0.6247    0.0000 C   0  0  0  0  0  0  0  0  0  0  0  0
   15.7564   -0.4866    0.0000 C   0  0  0  0  0  0  0  0  0  0  0  0
   15.8848   -1.3015    0.0000 O   0  0  0  0  0  0  0  0  0  0  0  0
   16.3980    0.0320    0.0000 N   0  0  0  0  0  0  0  0  0  0  0  0
   17.1680   -0.2643    0.0000 C   0  0  2  0  0  0  0  0  0  0  0  0
   17.2963   -1.0793    0.0000 C   0  0  0  0  0  0  0  0  0  0  0  0
   18.0662   -1.3756    0.0000 C   0  0  0  0  0  0  0  0  0  0  0  0
   16.6547   -1.5979    0.0000 C   0  0  0  0  0  0  0  0  0  0  0  0
   17.8096    0.2543    0.0000 C   0  0  0  0  0  0  0  0  0  0  0  0
   17.6813    1.0692    0.0000 O   0  0  0  0  0  0  0  0  0  0  0  0
   18.5795   -0.0421    0.0000 N   0  0  0  0  0  0  0  0  0  0  0  0
   19.2212    0.4765    0.0000 C   0  0  1  0  0  0  0  0  0  0  0  0
   19.0928    1.2915    0.0000 C   0  0  0  0  0  0  0  0  0  0  0  0
   19.7344    1.8101    0.0000 C   0  0  0  0  0  0  0  0  0  0  0  0
   19.6061    2.6251    0.0000 C   0  0  0  0  0  0  0  0  0  0  0  0
   20.5044    1.5138    0.0000 C   0  0  0  0  0  0  0  0  0  0  0  0
   19.9911    0.1802    0.0000 C   0  0  0  0  0  0  0  0  0  0  0  0
   20.1194   -0.6348    0.0000 O   0  0  0  0  0  0  0  0  0  0  0  0
   20.6327    0.6988    0.0000 N   0  0  0  0  0  0  0  0  0  0  0  0
   21.4026    0.4025    0.0000 C   0  0  1  0  0  0  0  0  0  0  0  0
   22.0443    0.9211    0.0000 C   0  0  0  0  0  0  0  0  0  0  0  0
   22.8142    0.6247    0.0000 C   0  0  0  0  0  0  0  0  0  0  0  0
   23.4558    1.1433    0.0000 C   0  0  0  0  0  0  0  0  0  0  0  0
   23.3275    1.9583    0.0000 O   0  0  0  0  0  0  0  0  0  0  0  0
   24.2257    0.8470    0.0000 O   0  0  0  0  0  0  0  0  0  0  0  0
   24.8674    1.3656    0.0000 C   0  0  0  0  0  0  0  0  0  0  0  0
   25.6373    1.0692    0.0000 C   0  0  0  0  0  0  0  0  0  0  0  0
   27.0488    1.2915    0.0000 C   0  0  0  0  0  0  0  0  0  0  0  0
   26.2789    1.5879    0.0000 C   0  0  0  0  0  0  0  0  0  0  0  0
   25.7656    0.2543    0.0000 C   0  0  0  0  0  0  0  0  0  0  0  0
   26.5355   -0.0421    0.0000 C   0  0  0  0  0  0  0  0  0  0  0  0
   27.1772    0.4765    0.0000 C   0  0  0  0  0  0  0  0  0  0  0  0
   21.5310   -0.4125    0.0000 C   0  0  0  0  0  0  0  0  0  0  0  0
   22.3009   -0.7088    0.0000 C   0  0  2  0  0  0  0  0  0  0  0  0
   23.3375   -1.5499    0.0000 N   0  0  0  0  0  0  0  0  0  0  0  0
   22.5137   -1.5059    0.0000 C   0  0  0  0  0  0  0  0  0  0  0  0
   22.9932   -0.2601    0.0000 C   0  0  0  0  0  0  0  0  0  0  0  0
   23.6339   -0.7799    0.0000 C   0  0  0  0  0  0  0  0  0  0  0  0
   21.9939   -2.1466    0.0000 O   0  0  0  0  0  0  0  0  0  0  0  0
  1  2  1  0  0  0  0
  2  3  1  0  0  0  0
  3  4  2  0  0  0  0
  4  5  1  0  0  0  0
  1  5  2  0  0  0  0
  1  6  1  0  0  0  0
  4  7  1  0  0  0  0
  7  8  2  0  0  0  0
  7  9  1  0  0  0  0
 10  9  1  0  0  0  0
 10 11  1  6  0  0  0
 10 12  1  0  0  0  0
 12 13  2  0  0  0  0
 12 14  1  0  0  0  0
 15 14  1  1  0  0  0
 15 16  1  0  0  0  0
 16 17  1  0  0  0  0
 16 18  1  0  0  0  0
 15 19  1  0  0  0  0
 19 20  2  0  0  0  0
 19 21  1  0  0  0  0
 22 21  1  1  0  0  0
 22 23  1  0  0  0  0
 23 24  1  0  0  0  0
 24 25  1  0  0  0  0
 24 26  1  0  0  0  0
 22 27  1  0  0  0  0
 27 28  2  0  0  0  0
 27 29  1  0  0  0  0
 30 29  1  1  0  0  0
 30 31  1  0  0  0  0
 31 32  2  0  0  0  0
 32 33  1  0  0  0  0
 33 34  2  0  0  0  0
 33 35  1  0  0  0  0
 35 36  1  0  0  0  0
 36 37  1  0  0  0  0
 38 39  2  0  0  0  0
 40 41  1  0  0  0  0
 41 42  2  0  0  0  0
 38 42  1  0  0  0  0
 39 37  1  0  0  0  0
 37 40  2  0  0  0  0
 30 43  1  0  0  0  0
 44 43  1  1  0  0  0
 45 46  1  0  0  0  0
 47 48  1  0  0  0  0
 45 48  1  0  0  0  0
 44 46  1  0  0  0  0
 44 47  1  0  0  0  0
 46 49  2  0  0  0  0
M  END
$$$$

  Mrv1823 04162023282D          

 49 51  0  0  1  0            999 V2000
   12.8417    1.5924    0.0000 C   0  0  0  0  0  0  0  0  0  0  0  0
   13.6566    1.7207    0.0000 O   0  0  0  0  0  0  0  0  0  0  0  0
   14.0305    0.9853    0.0000 N   0  0  0  0  0  0  0  0  0  0  0  0
   13.4466    0.4025    0.0000 C   0  0  0  0  0  0  0  0  0  0  0  0
   12.7119    0.7777    0.0000 C   0  0  0  0  0  0  0  0  0  0  0  0
   12.2588    2.1763    0.0000 C   0  0  0  0  0  0  0  0  0  0  0  0
   13.5749   -0.4125    0.0000 C   0  0  0  0  0  0  0  0  0  0  0  0
   12.9333   -0.9311    0.0000 O   0  0  0  0  0  0  0  0  0  0  0  0
   14.3449   -0.7088    0.0000 N   0  0  0  0  0  0  0  0  0  0  0  0
   14.9865   -0.1902    0.0000 C   0  0  2  0  0  0  0  0  0  0  0  0
   14.8582    0.6247    0.0000 C   0  0  0  0  0  0  0  0  0  0  0  0
   15.7564   -0.4866    0.0000 C   0  0  0  0  0  0  0  0  0  0  0  0
   15.8848   -1.3015    0.0000 O   0  0  0  0  0  0  0  0  0  0  0  0
   16.3980    0.0320    0.0000 N   0  0  0  0  0  0  0  0  0  0  0  0
   17.1680   -0.2643    0.0000 C   0  0  2  0  0  0  0  0  0  0  0  0
   17.2963   -1.0793    0.0000 C   0  0  0  0  0  0  0  0  0  0  0  0
   18.0662   -1.3756    0.0000 C   0  0  0  0  0  0  0  0  0  0  0  0
   16.6547   -1.5979    0.0000 C   0  0  0  0  0  0  0  0  0  0  0  0
   17.8096    0.2543    0.0000 C   0  0  0  0  0  0  0  0  0  0  0  0
   17.6813    1.0692    0.0000 O   0  0  0  0  0  0  0  0  0  0  0  0
   18.5795   -0.0421    0.0000 N   0  0  0  0  0  0  0  0  0  0  0  0
   19.2212    0.4765    0.0000 C   0  0  1  0  0  0  0  0  0  0  0  0
   19.0928    1.2915    0.0000 C   0  0  0  0  0  0  0  0  0  0  0  0
   19.7344    1.8101    0.0000 C   0  0  0  0  0  0  0  0  0  0  0  0
   19.6061    2.6251    0.0000 C   0  0  0  0  0  0  0  0  0  0  0  0
   20.5044    1.5138    0.0000 C   0  0  0  0  0  0  0  0  0  0  0  0
   19.9911    0.1802    0.0000 C   0  0  0  0  0  0  0  0  0  0  0  0
   20.1194   -0.6348    0.0000 O   0  0  0  0  0  0  0  0  0  0  0  0
   20.6327    0.6988    0.0000 N   0  0  0  0  0  0  0  0  0  0  0  0
   21.4026    0.4025    0.0000 C   0  0  1  0  0  0  0  0  0  0  0  0
   22.0443    0.9211    0.0000 C   0  0  0  0  0  0  0  0  0  0  0  0
   22.8142    0.6247    0.0000 C   0  0  0  0  0  0  0  0  0  0  0  0
   23.4558    1.1433    0.0000 C   0  0  0  0  0  0  0  0  0  0  0  0
   23.3275    1.9583    0.0000 O   0  0  0  0  0  0  0  0  0  0  0  0
   24.2257    0.8470    0.0000 O   0  0  0  0  0  0  0  0  0  0  0  0
   24.8674    1.3656    0.0000 C   0  0  0  0  0  0  0  0  0  0  0  0
   25.6373    1.0692    0.0000 C   0  0  0  0  0  0  0  0  0  0  0  0
   27.0488    1.2915    0.0000 C   0  0  0  0  0  0  0  0  0  0  0  0
   26.2789    1.5879    0.0000 C   0  0  0  0  0  0  0  0  0  0  0  0
   25.7656    0.2543    0.0000 C   0  0  0  0  0  0  0  0  0  0  0  0
   26.5355   -0.0421    0.0000 C   0  0  0  0  0  0  0  0  0  0  0  0
   27.1772    0.4765    0.0000 C   0  0  0  0  0  0  0  0  0  0  0  0
   21.5310   -0.4125    0.0000 C   0  0  0  0  0  0  0  0  0  0  0  0
   22.3009   -0.7088    0.0000 C   0  0  1  0  0  0  0  0  0  0  0  0
   23.3375   -1.5499    0.0000 N   0  0  0  0  0  0  0  0  0  0  0  0
   22.5137   -1.5059    0.0000 C   0  0  0  0  0  0  0  0  0  0  0  0
   22.9932   -0.2601    0.0000 C   0  0  0  0  0  0  0  0  0  0  0  0
   23.6339   -0.7799    0.0000 C   0  0  0  0  0  0  0  0  0  0  0  0
   21.9939   -2.1466    0.0000 O   0  0  0  0  0  0  0  0  0  0  0  0
  1  2  1  0  0  0  0
  2  3  1  0  0  0  0
  3  4  2  0  0  0  0
  4  5  1  0  0  0  0
  1  5  2  0  0  0  0
  1  6  1  0  0  0  0
  4  7  1  0  0  0  0
  7  8  2  0  0  0  0
  7  9  1  0  0  0  0
 10  9  1  0  0  0  0
 10 11  1  6  0  0  0
 10 12  1  0  0  0  0
 12 13  2  0  0  0  0
 12 14  1  0  0  0  0
 15 14  1  1  0  0  0
 15 16  1  0  0  0  0
 16 17  1  0  0  0  0
 16 18  1  0  0  0  0
 15 19  1  0  0  0  0
 19 20  2  0  0  0  0
 19 21  1  0  0  0  0
 22 21  1  1  0  0  0
 22 23  1  0  0  0  0
 23 24  1  0  0  0  0
 24 25  1  0  0  0  0
 24 26  1  0  0  0  0
 22 27  1  0  0  0  0
 27 28  2  0  0  0  0
 27 29  1  0  0  0  0
 30 29  1  1  0  0  0
 30 31  1  0  0  0  0
 31 32  2  0  0  0  0
 32 33  1  0  0  0  0
 33 34  2  0  0  0  0
 33 35  1  0  0  0  0
 35 36  1  0  0  0  0
 36 37  1  0  0  0  0
 38 39  2  0  0  0  0
 40 41  1  0  0  0  0
 41 42  2  0  0  0  0
 38 42  1  0  0  0  0
 39 37  1  0  0  0  0
 37 40  2  0  0  0  0
 30 43  1  0  0  0  0
 44 43  1  6  0  0  0
 45 46  1  0  0  0  0
 47 48  1  0  0  0  0
 45 48  1  0  0  0  0
 44 46  1  0  0  0  0
 44 47  1  0  0  0  0
 46 49  2  0  0  0  0
M  END
$$$$

  Mrv1823 04162023282D          

 49 51  0  0  1  0            999 V2000
   12.8417    1.5924    0.0000 C   0  0  0  0  0  0  0  0  0  0  0  0
   13.6566    1.7207    0.0000 O   0  0  0  0  0  0  0  0  0  0  0  0
   14.0305    0.9853    0.0000 N   0  0  0  0  0  0  0  0  0  0  0  0
   13.4466    0.4025    0.0000 C   0  0  0  0  0  0  0  0  0  0  0  0
   12.7119    0.7777    0.0000 C   0  0  0  0  0  0  0  0  0  0  0  0
   12.2588    2.1763    0.0000 C   0  0  0  0  0  0  0  0  0  0  0  0
   13.5749   -0.4125    0.0000 C   0  0  0  0  0  0  0  0  0  0  0  0
   12.9333   -0.9311    0.0000 O   0  0  0  0  0  0  0  0  0  0  0  0
   14.3449   -0.7088    0.0000 N   0  0  0  0  0  0  0  0  0  0  0  0
   14.9865   -0.1902    0.0000 C   0  0  1  0  0  0  0  0  0  0  0  0
   14.8582    0.6247    0.0000 C   0  0  0  0  0  0  0  0  0  0  0  0
   15.7564   -0.4866    0.0000 C   0  0  0  0  0  0  0  0  0  0  0  0
   15.8848   -1.3015    0.0000 O   0  0  0  0  0  0  0  0  0  0  0  0
   16.3980    0.0320    0.0000 N   0  0  0  0  0  0  0  0  0  0  0  0
   17.1680   -0.2643    0.0000 C   0  0  2  0  0  0  0  0  0  0  0  0
   17.2963   -1.0793    0.0000 C   0  0  0  0  0  0  0  0  0  0  0  0
   18.0662   -1.3756    0.0000 C   0  0  0  0  0  0  0  0  0  0  0  0
   16.6547   -1.5979    0.0000 C   0  0  0  0  0  0  0  0  0  0  0  0
   17.8096    0.2543    0.0000 C   0  0  0  0  0  0  0  0  0  0  0  0
   17.6813    1.0692    0.0000 O   0  0  0  0  0  0  0  0  0  0  0  0
   18.5795   -0.0421    0.0000 N   0  0  0  0  0  0  0  0  0  0  0  0
   19.2212    0.4765    0.0000 C   0  0  1  0  0  0  0  0  0  0  0  0
   19.0928    1.2915    0.0000 C   0  0  0  0  0  0  0  0  0  0  0  0
   19.7344    1.8101    0.0000 C   0  0  0  0  0  0  0  0  0  0  0  0
   19.6061    2.6251    0.0000 C   0  0  0  0  0  0  0  0  0  0  0  0
   20.5044    1.5138    0.0000 C   0  0  0  0  0  0  0  0  0  0  0  0
   19.9911    0.1802    0.0000 C   0  0  0  0  0  0  0  0  0  0  0  0
   20.1194   -0.6348    0.0000 O   0  0  0  0  0  0  0  0  0  0  0  0
   20.6327    0.6988    0.0000 N   0  0  0  0  0  0  0  0  0  0  0  0
   21.4026    0.4025    0.0000 C   0  0  2  0  0  0  0  0  0  0  0  0
   22.0443    0.9211    0.0000 C   0  0  0  0  0  0  0  0  0  0  0  0
   22.8142    0.6247    0.0000 C   0  0  0  0  0  0  0  0  0  0  0  0
   23.4558    1.1433    0.0000 C   0  0  0  0  0  0  0  0  0  0  0  0
   23.3275    1.9583    0.0000 O   0  0  0  0  0  0  0  0  0  0  0  0
   24.2257    0.8470    0.0000 O   0  0  0  0  0  0  0  0  0  0  0  0
   24.8674    1.3656    0.0000 C   0  0  0  0  0  0  0  0  0  0  0  0
   25.6373    1.0692    0.0000 C   0  0  0  0  0  0  0  0  0  0  0  0
   27.0488    1.2915    0.0000 C   0  0  0  0  0  0  0  0  0  0  0  0
   26.2789    1.5879    0.0000 C   0  0  0  0  0  0  0  0  0  0  0  0
   25.7656    0.2543    0.0000 C   0  0  0  0  0  0  0  0  0  0  0  0
   26.5355   -0.0421    0.0000 C   0  0  0  0  0  0  0  0  0  0  0  0
   27.1772    0.4765    0.0000 C   0  0  0  0  0  0  0  0  0  0  0  0
   21.5310   -0.4125    0.0000 C   0  0  0  0  0  0  0  0  0  0  0  0
   22.3009   -0.7088    0.0000 C   0  0  2  0  0  0  0  0  0  0  0  0
   23.3375   -1.5499    0.0000 N   0  0  0  0  0  0  0  0  0  0  0  0
   22.5137   -1.5059    0.0000 C   0  0  0  0  0  0  0  0  0  0  0  0
   22.9932   -0.2601    0.0000 C   0  0  0  0  0  0  0  0  0  0  0  0
   23.6339   -0.7799    0.0000 C   0  0  0  0  0  0  0  0  0  0  0  0
   21.9939   -2.1466    0.0000 O   0  0  0  0  0  0  0  0  0  0  0  0
  1  2  1  0  0  0  0
  2  3  1  0  0  0  0
  3  4  2  0  0  0  0
  4  5  1  0  0  0  0
  1  5  2  0  0  0  0
  1  6  1  0  0  0  0
  4  7  1  0  0  0  0
  7  8  2  0  0  0  0
  7  9  1  0  0  0  0
 10  9  1  0  0  0  0
 10 11  1  1  0  0  0
 10 12  1  0  0  0  0
 12 13  2  0  0  0  0
 12 14  1  0  0  0  0
 15 14  1  1  0  0  0
 15 16  1  0  0  0  0
 16 17  1  0  0  0  0
 16 18  1  0  0  0  0
 15 19  1  0  0  0  0
 19 20  2  0  0  0  0
 19 21  1  0  0  0  0
 22 21  1  1  0  0  0
 22 23  1  0  0  0  0
 23 24  1  0  0  0  0
 24 25  1  0  0  0  0
 24 26  1  0  0  0  0
 22 27  1  0  0  0  0
 27 28  2  0  0  0  0
 27 29  1  0  0  0  0
 30 29  1  6  0  0  0
 30 31  1  0  0  0  0
 31 32  2  0  0  0  0
 32 33  1  0  0  0  0
 33 34  2  0  0  0  0
 33 35  1  0  0  0  0
 35 36  1  0  0  0  0
 36 37  1  0  0  0  0
 38 39  2  0  0  0  0
 40 41  1  0  0  0  0
 41 42  2  0  0  0  0
 38 42  1  0  0  0  0
 39 37  1  0  0  0  0
 37 40  2  0  0  0  0
 30 43  1  0  0  0  0
 44 43  1  1  0  0  0
 45 46  1  0  0  0  0
 47 48  1  0  0  0  0
 45 48  1  0  0  0  0
 44 46  1  0  0  0  0
 44 47  1  0  0  0  0
 46 49  2  0  0  0  0
M  END
$$$$

  Mrv1823 04162023282D          

 49 51  0  0  1  0            999 V2000
   12.8417    1.5924    0.0000 C   0  0  0  0  0  0  0  0  0  0  0  0
   13.6566    1.7207    0.0000 O   0  0  0  0  0  0  0  0  0  0  0  0
   14.0305    0.9853    0.0000 N   0  0  0  0  0  0  0  0  0  0  0  0
   13.4466    0.4025    0.0000 C   0  0  0  0  0  0  0  0  0  0  0  0
   12.7119    0.7777    0.0000 C   0  0  0  0  0  0  0  0  0  0  0  0
   12.2588    2.1763    0.0000 C   0  0  0  0  0  0  0  0  0  0  0  0
   13.5749   -0.4125    0.0000 C   0  0  0  0  0  0  0  0  0  0  0  0
   12.9333   -0.9311    0.0000 O   0  0  0  0  0  0  0  0  0  0  0  0
   14.3449   -0.7088    0.0000 N   0  0  0  0  0  0  0  0  0  0  0  0
   14.9865   -0.1902    0.0000 C   0  0  1  0  0  0  0  0  0  0  0  0
   14.8582    0.6247    0.0000 C   0  0  0  0  0  0  0  0  0  0  0  0
   15.7564   -0.4866    0.0000 C   0  0  0  0  0  0  0  0  0  0  0  0
   15.8848   -1.3015    0.0000 O   0  0  0  0  0  0  0  0  0  0  0  0
   16.3980    0.0320    0.0000 N   0  0  0  0  0  0  0  0  0  0  0  0
   17.1680   -0.2643    0.0000 C   0  0  2  0  0  0  0  0  0  0  0  0
   17.2963   -1.0793    0.0000 C   0  0  0  0  0  0  0  0  0  0  0  0
   18.0662   -1.3756    0.0000 C   0  0  0  0  0  0  0  0  0  0  0  0
   16.6547   -1.5979    0.0000 C   0  0  0  0  0  0  0  0  0  0  0  0
   17.8096    0.2543    0.0000 C   0  0  0  0  0  0  0  0  0  0  0  0
   17.6813    1.0692    0.0000 O   0  0  0  0  0  0  0  0  0  0  0  0
   18.5795   -0.0421    0.0000 N   0  0  0  0  0  0  0  0  0  0  0  0
   19.2212    0.4765    0.0000 C   0  0  1  0  0  0  0  0  0  0  0  0
   19.0928    1.2915    0.0000 C   0  0  0  0  0  0  0  0  0  0  0  0
   19.7344    1.8101    0.0000 C   0  0  0  0  0  0  0  0  0  0  0  0
   19.6061    2.6251    0.0000 C   0  0  0  0  0  0  0  0  0  0  0  0
   20.5044    1.5138    0.0000 C   0  0  0  0  0  0  0  0  0  0  0  0
   19.9911    0.1802    0.0000 C   0  0  0  0  0  0  0  0  0  0  0  0
   20.1194   -0.6348    0.0000 O   0  0  0  0  0  0  0  0  0  0  0  0
   20.6327    0.6988    0.0000 N   0  0  0  0  0  0  0  0  0  0  0  0
   21.4026    0.4025    0.0000 C   0  0  2  0  0  0  0  0  0  0  0  0
   22.0443    0.9211    0.0000 C   0  0  0  0  0  0  0  0  0  0  0  0
   22.8142    0.6247    0.0000 C   0  0  0  0  0  0  0  0  0  0  0  0
   23.4558    1.1433    0.0000 C   0  0  0  0  0  0  0  0  0  0  0  0
   23.3275    1.9583    0.0000 O   0  0  0  0  0  0  0  0  0  0  0  0
   24.2257    0.8470    0.0000 O   0  0  0  0  0  0  0  0  0  0  0  0
   24.8674    1.3656    0.0000 C   0  0  0  0  0  0  0  0  0  0  0  0
   25.6373    1.0692    0.0000 C   0  0  0  0  0  0  0  0  0  0  0  0
   27.0488    1.2915    0.0000 C   0  0  0  0  0  0  0  0  0  0  0  0
   26.2789    1.5879    0.0000 C   0  0  0  0  0  0  0  0  0  0  0  0
   25.7656    0.2543    0.0000 C   0  0  0  0  0  0  0  0  0  0  0  0
   26.5355   -0.0421    0.0000 C   0  0  0  0  0  0  0  0  0  0  0  0
   27.1772    0.4765    0.0000 C   0  0  0  0  0  0  0  0  0  0  0  0
   21.5310   -0.4125    0.0000 C   0  0  0  0  0  0  0  0  0  0  0  0
   22.3009   -0.7088    0.0000 C   0  0  1  0  0  0  0  0  0  0  0  0
   23.3375   -1.5499    0.0000 N   0  0  0  0  0  0  0  0  0  0  0  0
   22.5137   -1.5059    0.0000 C   0  0  0  0  0  0  0  0  0  0  0  0
   22.9932   -0.2601    0.0000 C   0  0  0  0  0  0  0  0  0  0  0  0
   23.6339   -0.7799    0.0000 C   0  0  0  0  0  0  0  0  0  0  0  0
   21.9939   -2.1466    0.0000 O   0  0  0  0  0  0  0  0  0  0  0  0
  1  2  1  0  0  0  0
  2  3  1  0  0  0  0
  3  4  2  0  0  0  0
  4  5  1  0  0  0  0
  1  5  2  0  0  0  0
  1  6  1  0  0  0  0
  4  7  1  0  0  0  0
  7  8  2  0  0  0  0
  7  9  1  0  0  0  0
 10  9  1  0  0  0  0
 10 11  1  1  0  0  0
 10 12  1  0  0  0  0
 12 13  2  0  0  0  0
 12 14  1  0  0  0  0
 15 14  1  1  0  0  0
 15 16  1  0  0  0  0
 16 17  1  0  0  0  0
 16 18  1  0  0  0  0
 15 19  1  0  0  0  0
 19 20  2  0  0  0  0
 19 21  1  0  0  0  0
 22 21  1  1  0  0  0
 22 23  1  0  0  0  0
 23 24  1  0  0  0  0
 24 25  1  0  0  0  0
 24 26  1  0  0  0  0
 22 27  1  0  0  0  0
 27 28  2  0  0  0  0
 27 29  1  0  0  0  0
 30 29  1  6  0  0  0
 30 31  1  0  0  0  0
 31 32  2  0  0  0  0
 32 33  1  0  0  0  0
 33 34  2  0  0  0  0
 33 35  1  0  0  0  0
 35 36  1  0  0  0  0
 36 37  1  0  0  0  0
 38 39  2  0  0  0  0
 40 41  1  0  0  0  0
 41 42  2  0  0  0  0
 38 42  1  0  0  0  0
 39 37  1  0  0  0  0
 37 40  2  0  0  0  0
 30 43  1  0  0  0  0
 44 43  1  6  0  0  0
 45 46  1  0  0  0  0
 47 48  1  0  0  0  0
 45 48  1  0  0  0  0
 44 46  1  0  0  0  0
 44 47  1  0  0  0  0
 46 49  2  0  0  0  0
M  END
$$$$

  Mrv1823 04162023282D          

 49 51  0  0  1  0            999 V2000
   12.8417    1.5924    0.0000 C   0  0  0  0  0  0  0  0  0  0  0  0
   13.6566    1.7207    0.0000 O   0  0  0  0  0  0  0  0  0  0  0  0
   14.0305    0.9853    0.0000 N   0  0  0  0  0  0  0  0  0  0  0  0
   13.4466    0.4025    0.0000 C   0  0  0  0  0  0  0  0  0  0  0  0
   12.7119    0.7777    0.0000 C   0  0  0  0  0  0  0  0  0  0  0  0
   12.2588    2.1763    0.0000 C   0  0  0  0  0  0  0  0  0  0  0  0
   13.5749   -0.4125    0.0000 C   0  0  0  0  0  0  0  0  0  0  0  0
   12.9333   -0.9311    0.0000 O   0  0  0  0  0  0  0  0  0  0  0  0
   14.3449   -0.7088    0.0000 N   0  0  0  0  0  0  0  0  0  0  0  0
   14.9865   -0.1902    0.0000 C   0  0  1  0  0  0  0  0  0  0  0  0
   14.8582    0.6247    0.0000 C   0  0  0  0  0  0  0  0  0  0  0  0
   15.7564   -0.4866    0.0000 C   0  0  0  0  0  0  0  0  0  0  0  0
   15.8848   -1.3015    0.0000 O   0  0  0  0  0  0  0  0  0  0  0  0
   16.3980    0.0320    0.0000 N   0  0  0  0  0  0  0  0  0  0  0  0
   17.1680   -0.2643    0.0000 C   0  0  2  0  0  0  0  0  0  0  0  0
   17.2963   -1.0793    0.0000 C   0  0  0  0  0  0  0  0  0  0  0  0
   18.0662   -1.3756    0.0000 C   0  0  0  0  0  0  0  0  0  0  0  0
   16.6547   -1.5979    0.0000 C   0  0  0  0  0  0  0  0  0  0  0  0
   17.8096    0.2543    0.0000 C   0  0  0  0  0  0  0  0  0  0  0  0
   17.6813    1.0692    0.0000 O   0  0  0  0  0  0  0  0  0  0  0  0
   18.5795   -0.0421    0.0000 N   0  0  0  0  0  0  0  0  0  0  0  0
   19.2212    0.4765    0.0000 C   0  0  1  0  0  0  0  0  0  0  0  0
   19.0928    1.2915    0.0000 C   0  0  0  0  0  0  0  0  0  0  0  0
   19.7344    1.8101    0.0000 C   0  0  0  0  0  0  0  0  0  0  0  0
   19.6061    2.6251    0.0000 C   0  0  0  0  0  0  0  0  0  0  0  0
   20.5044    1.5138    0.0000 C   0  0  0  0  0  0  0  0  0  0  0  0
   19.9911    0.1802    0.0000 C   0  0  0  0  0  0  0  0  0  0  0  0
   20.1194   -0.6348    0.0000 O   0  0  0  0  0  0  0  0  0  0  0  0
   20.6327    0.6988    0.0000 N   0  0  0  0  0  0  0  0  0  0  0  0
   21.4026    0.4025    0.0000 C   0  0  1  0  0  0  0  0  0  0  0  0
   22.0443    0.9211    0.0000 C   0  0  0  0  0  0  0  0  0  0  0  0
   22.8142    0.6247    0.0000 C   0  0  0  0  0  0  0  0  0  0  0  0
   23.4558    1.1433    0.0000 C   0  0  0  0  0  0  0  0  0  0  0  0
   23.3275    1.9583    0.0000 O   0  0  0  0  0  0  0  0  0  0  0  0
   24.2257    0.8470    0.0000 O   0  0  0  0  0  0  0  0  0  0  0  0
   24.8674    1.3656    0.0000 C   0  0  0  0  0  0  0  0  0  0  0  0
   25.6373    1.0692    0.0000 C   0  0  0  0  0  0  0  0  0  0  0  0
   27.0488    1.2915    0.0000 C   0  0  0  0  0  0  0  0  0  0  0  0
   26.2789    1.5879    0.0000 C   0  0  0  0  0  0  0  0  0  0  0  0
   25.7656    0.2543    0.0000 C   0  0  0  0  0  0  0  0  0  0  0  0
   26.5355   -0.0421    0.0000 C   0  0  0  0  0  0  0  0  0  0  0  0
   27.1772    0.4765    0.0000 C   0  0  0  0  0  0  0  0  0  0  0  0
   21.5310   -0.4125    0.0000 C   0  0  0  0  0  0  0  0  0  0  0  0
   22.3009   -0.7088    0.0000 C   0  0  2  0  0  0  0  0  0  0  0  0
   23.3375   -1.5499    0.0000 N   0  0  0  0  0  0  0  0  0  0  0  0
   22.5137   -1.5059    0.0000 C   0  0  0  0  0  0  0  0  0  0  0  0
   22.9932   -0.2601    0.0000 C   0  0  0  0  0  0  0  0  0  0  0  0
   23.6339   -0.7799    0.0000 C   0  0  0  0  0  0  0  0  0  0  0  0
   21.9939   -2.1466    0.0000 O   0  0  0  0  0  0  0  0  0  0  0  0
  1  2  1  0  0  0  0
  2  3  1  0  0  0  0
  3  4  2  0  0  0  0
  4  5  1  0  0  0  0
  1  5  2  0  0  0  0
  1  6  1  0  0  0  0
  4  7  1  0  0  0  0
  7  8  2  0  0  0  0
  7  9  1  0  0  0  0
 10  9  1  0  0  0  0
 10 11  1  1  0  0  0
 10 12  1  0  0  0  0
 12 13  2  0  0  0  0
 12 14  1  0  0  0  0
 15 14  1  1  0  0  0
 15 16  1  0  0  0  0
 16 17  1  0  0  0  0
 16 18  1  0  0  0  0
 15 19  1  0  0  0  0
 19 20  2  0  0  0  0
 19 21  1  0  0  0  0
 22 21  1  1  0  0  0
 22 23  1  0  0  0  0
 23 24  1  0  0  0  0
 24 25  1  0  0  0  0
 24 26  1  0  0  0  0
 22 27  1  0  0  0  0
 27 28  2  0  0  0  0
 27 29  1  0  0  0  0
 30 29  1  1  0  0  0
 30 31  1  0  0  0  0
 31 32  2  0  0  0  0
 32 33  1  0  0  0  0
 33 34  2  0  0  0  0
 33 35  1  0  0  0  0
 35 36  1  0  0  0  0
 36 37  1  0  0  0  0
 38 39  2  0  0  0  0
 40 41  1  0  0  0  0
 41 42  2  0  0  0  0
 38 42  1  0  0  0  0
 39 37  1  0  0  0  0
 37 40  2  0  0  0  0
 30 43  1  0  0  0  0
 44 43  1  1  0  0  0
 45 46  1  0  0  0  0
 47 48  1  0  0  0  0
 45 48  1  0  0  0  0
 44 46  1  0  0  0  0
 44 47  1  0  0  0  0
 46 49  2  0  0  0  0
M  END
$$$$

  Mrv1823 04162023282D          

 49 51  0  0  1  0            999 V2000
   12.8417    1.5924    0.0000 C   0  0  0  0  0  0  0  0  0  0  0  0
   13.6566    1.7207    0.0000 O   0  0  0  0  0  0  0  0  0  0  0  0
   14.0305    0.9853    0.0000 N   0  0  0  0  0  0  0  0  0  0  0  0
   13.4466    0.4025    0.0000 C   0  0  0  0  0  0  0  0  0  0  0  0
   12.7119    0.7777    0.0000 C   0  0  0  0  0  0  0  0  0  0  0  0
   12.2588    2.1763    0.0000 C   0  0  0  0  0  0  0  0  0  0  0  0
   13.5749   -0.4125    0.0000 C   0  0  0  0  0  0  0  0  0  0  0  0
   12.9333   -0.9311    0.0000 O   0  0  0  0  0  0  0  0  0  0  0  0
   14.3449   -0.7088    0.0000 N   0  0  0  0  0  0  0  0  0  0  0  0
   14.9865   -0.1902    0.0000 C   0  0  1  0  0  0  0  0  0  0  0  0
   14.8582    0.6247    0.0000 C   0  0  0  0  0  0  0  0  0  0  0  0
   15.7564   -0.4866    0.0000 C   0  0  0  0  0  0  0  0  0  0  0  0
   15.8848   -1.3015    0.0000 O   0  0  0  0  0  0  0  0  0  0  0  0
   16.3980    0.0320    0.0000 N   0  0  0  0  0  0  0  0  0  0  0  0
   17.1680   -0.2643    0.0000 C   0  0  2  0  0  0  0  0  0  0  0  0
   17.2963   -1.0793    0.0000 C   0  0  0  0  0  0  0  0  0  0  0  0
   18.0662   -1.3756    0.0000 C   0  0  0  0  0  0  0  0  0  0  0  0
   16.6547   -1.5979    0.0000 C   0  0  0  0  0  0  0  0  0  0  0  0
   17.8096    0.2543    0.0000 C   0  0  0  0  0  0  0  0  0  0  0  0
   17.6813    1.0692    0.0000 O   0  0  0  0  0  0  0  0  0  0  0  0
   18.5795   -0.0421    0.0000 N   0  0  0  0  0  0  0  0  0  0  0  0
   19.2212    0.4765    0.0000 C   0  0  1  0  0  0  0  0  0  0  0  0
   19.0928    1.2915    0.0000 C   0  0  0  0  0  0  0  0  0  0  0  0
   19.7344    1.8101    0.0000 C   0  0  0  0  0  0  0  0  0  0  0  0
   19.6061    2.6251    0.0000 C   0  0  0  0  0  0  0  0  0  0  0  0
   20.5044    1.5138    0.0000 C   0  0  0  0  0  0  0  0  0  0  0  0
   19.9911    0.1802    0.0000 C   0  0  0  0  0  0  0  0  0  0  0  0
   20.1194   -0.6348    0.0000 O   0  0  0  0  0  0  0  0  0  0  0  0
   20.6327    0.6988    0.0000 N   0  0  0  0  0  0  0  0  0  0  0  0
   21.4026    0.4025    0.0000 C   0  0  1  0  0  0  0  0  0  0  0  0
   22.0443    0.9211    0.0000 C   0  0  0  0  0  0  0  0  0  0  0  0
   22.8142    0.6247    0.0000 C   0  0  0  0  0  0  0  0  0  0  0  0
   23.4558    1.1433    0.0000 C   0  0  0  0  0  0  0  0  0  0  0  0
   23.3275    1.9583    0.0000 O   0  0  0  0  0  0  0  0  0  0  0  0
   24.2257    0.8470    0.0000 O   0  0  0  0  0  0  0  0  0  0  0  0
   24.8674    1.3656    0.0000 C   0  0  0  0  0  0  0  0  0  0  0  0
   25.6373    1.0692    0.0000 C   0  0  0  0  0  0  0  0  0  0  0  0
   27.0488    1.2915    0.0000 C   0  0  0  0  0  0  0  0  0  0  0  0
   26.2789    1.5879    0.0000 C   0  0  0  0  0  0  0  0  0  0  0  0
   25.7656    0.2543    0.0000 C   0  0  0  0  0  0  0  0  0  0  0  0
   26.5355   -0.0421    0.0000 C   0  0  0  0  0  0  0  0  0  0  0  0
   27.1772    0.4765    0.0000 C   0  0  0  0  0  0  0  0  0  0  0  0
   21.5310   -0.4125    0.0000 C   0  0  0  0  0  0  0  0  0  0  0  0
   22.3009   -0.7088    0.0000 C   0  0  1  0  0  0  0  0  0  0  0  0
   23.3375   -1.5499    0.0000 N   0  0  0  0  0  0  0  0  0  0  0  0
   22.5137   -1.5059    0.0000 C   0  0  0  0  0  0  0  0  0  0  0  0
   22.9932   -0.2601    0.0000 C   0  0  0  0  0  0  0  0  0  0  0  0
   23.6339   -0.7799    0.0000 C   0  0  0  0  0  0  0  0  0  0  0  0
   21.9939   -2.1466    0.0000 O   0  0  0  0  0  0  0  0  0  0  0  0
  1  2  1  0  0  0  0
  2  3  1  0  0  0  0
  3  4  2  0  0  0  0
  4  5  1  0  0  0  0
  1  5  2  0  0  0  0
  1  6  1  0  0  0  0
  4  7  1  0  0  0  0
  7  8  2  0  0  0  0
  7  9  1  0  0  0  0
 10  9  1  0  0  0  0
 10 11  1  1  0  0  0
 10 12  1  0  0  0  0
 12 13  2  0  0  0  0
 12 14  1  0  0  0  0
 15 14  1  1  0  0  0
 15 16  1  0  0  0  0
 16 17  1  0  0  0  0
 16 18  1  0  0  0  0
 15 19  1  0  0  0  0
 19 20  2  0  0  0  0
 19 21  1  0  0  0  0
 22 21  1  1  0  0  0
 22 23  1  0  0  0  0
 23 24  1  0  0  0  0
 24 25  1  0  0  0  0
 24 26  1  0  0  0  0
 22 27  1  0  0  0  0
 27 28  2  0  0  0  0
 27 29  1  0  0  0  0
 30 29  1  1  0  0  0
 30 31  1  0  0  0  0
 31 32  2  0  0  0  0
 32 33  1  0  0  0  0
 33 34  2  0  0  0  0
 33 35  1  0  0  0  0
 35 36  1  0  0  0  0
 36 37  1  0  0  0  0
 38 39  2  0  0  0  0
 40 41  1  0  0  0  0
 41 42  2  0  0  0  0
 38 42  1  0  0  0  0
 39 37  1  0  0  0  0
 37 40  2  0  0  0  0
 30 43  1  0  0  0  0
 44 43  1  6  0  0  0
 45 46  1  0  0  0  0
 47 48  1  0  0  0  0
 45 48  1  0  0  0  0
 44 46  1  0  0  0  0
 44 47  1  0  0  0  0
 46 49  2  0  0  0  0
M  END
$$$$

  Mrv1823 04162023282D          

 49 51  0  0  1  0            999 V2000
   12.8417    1.5924    0.0000 C   0  0  0  0  0  0  0  0  0  0  0  0
   13.6566    1.7207    0.0000 O   0  0  0  0  0  0  0  0  0  0  0  0
   14.0305    0.9853    0.0000 N   0  0  0  0  0  0  0  0  0  0  0  0
   13.4466    0.4025    0.0000 C   0  0  0  0  0  0  0  0  0  0  0  0
   12.7119    0.7777    0.0000 C   0  0  0  0  0  0  0  0  0  0  0  0
   12.2588    2.1763    0.0000 C   0  0  0  0  0  0  0  0  0  0  0  0
   13.5749   -0.4125    0.0000 C   0  0  0  0  0  0  0  0  0  0  0  0
   12.9333   -0.9311    0.0000 O   0  0  0  0  0  0  0  0  0  0  0  0
   14.3449   -0.7088    0.0000 N   0  0  0  0  0  0  0  0  0  0  0  0
   14.9865   -0.1902    0.0000 C   0  0  2  0  0  0  0  0  0  0  0  0
   14.8582    0.6247    0.0000 C   0  0  0  0  0  0  0  0  0  0  0  0
   15.7564   -0.4866    0.0000 C   0  0  0  0  0  0  0  0  0  0  0  0
   15.8848   -1.3015    0.0000 O   0  0  0  0  0  0  0  0  0  0  0  0
   16.3980    0.0320    0.0000 N   0  0  0  0  0  0  0  0  0  0  0  0
   17.1680   -0.2643    0.0000 C   0  0  1  0  0  0  0  0  0  0  0  0
   17.2963   -1.0793    0.0000 C   0  0  0  0  0  0  0  0  0  0  0  0
   18.0662   -1.3756    0.0000 C   0  0  0  0  0  0  0  0  0  0  0  0
   16.6547   -1.5979    0.0000 C   0  0  0  0  0  0  0  0  0  0  0  0
   17.8096    0.2543    0.0000 C   0  0  0  0  0  0  0  0  0  0  0  0
   17.6813    1.0692    0.0000 O   0  0  0  0  0  0  0  0  0  0  0  0
   18.5795   -0.0421    0.0000 N   0  0  0  0  0  0  0  0  0  0  0  0
   19.2212    0.4765    0.0000 C   0  0  2  0  0  0  0  0  0  0  0  0
   19.0928    1.2915    0.0000 C   0  0  0  0  0  0  0  0  0  0  0  0
   19.7344    1.8101    0.0000 C   0  0  0  0  0  0  0  0  0  0  0  0
   19.6061    2.6251    0.0000 C   0  0  0  0  0  0  0  0  0  0  0  0
   20.5044    1.5138    0.0000 C   0  0  0  0  0  0  0  0  0  0  0  0
   19.9911    0.1802    0.0000 C   0  0  0  0  0  0  0  0  0  0  0  0
   20.1194   -0.6348    0.0000 O   0  0  0  0  0  0  0  0  0  0  0  0
   20.6327    0.6988    0.0000 N   0  0  0  0  0  0  0  0  0  0  0  0
   21.4026    0.4025    0.0000 C   0  0  2  0  0  0  0  0  0  0  0  0
   22.0443    0.9211    0.0000 C   0  0  0  0  0  0  0  0  0  0  0  0
   22.8142    0.6247    0.0000 C   0  0  0  0  0  0  0  0  0  0  0  0
   23.4558    1.1433    0.0000 C   0  0  0  0  0  0  0  0  0  0  0  0
   23.3275    1.9583    0.0000 O   0  0  0  0  0  0  0  0  0  0  0  0
   24.2257    0.8470    0.0000 O   0  0  0  0  0  0  0  0  0  0  0  0
   24.8674    1.3656    0.0000 C   0  0  0  0  0  0  0  0  0  0  0  0
   25.6373    1.0692    0.0000 C   0  0  0  0  0  0  0  0  0  0  0  0
   27.0488    1.2915    0.0000 C   0  0  0  0  0  0  0  0  0  0  0  0
   26.2789    1.5879    0.0000 C   0  0  0  0  0  0  0  0  0  0  0  0
   25.7656    0.2543    0.0000 C   0  0  0  0  0  0  0  0  0  0  0  0
   26.5355   -0.0421    0.0000 C   0  0  0  0  0  0  0  0  0  0  0  0
   27.1772    0.4765    0.0000 C   0  0  0  0  0  0  0  0  0  0  0  0
   21.5310   -0.4125    0.0000 C   0  0  0  0  0  0  0  0  0  0  0  0
   22.3009   -0.7088    0.0000 C   0  0  2  0  0  0  0  0  0  0  0  0
   23.3375   -1.5499    0.0000 N   0  0  0  0  0  0  0  0  0  0  0  0
   22.5137   -1.5059    0.0000 C   0  0  0  0  0  0  0  0  0  0  0  0
   22.9932   -0.2601    0.0000 C   0  0  0  0  0  0  0  0  0  0  0  0
   23.6339   -0.7799    0.0000 C   0  0  0  0  0  0  0  0  0  0  0  0
   21.9939   -2.1466    0.0000 O   0  0  0  0  0  0  0  0  0  0  0  0
  1  2  1  0  0  0  0
  2  3  1  0  0  0  0
  3  4  2  0  0  0  0
  4  5  1  0  0  0  0
  1  5  2  0  0  0  0
  1  6  1  0  0  0  0
  4  7  1  0  0  0  0
  7  8  2  0  0  0  0
  7  9  1  0  0  0  0
 10  9  1  0  0  0  0
 10 11  1  6  0  0  0
 10 12  1  0  0  0  0
 12 13  2  0  0  0  0
 12 14  1  0  0  0  0
 15 14  1  6  0  0  0
 15 16  1  0  0  0  0
 16 17  1  0  0  0  0
 16 18  1  0  0  0  0
 15 19  1  0  0  0  0
 19 20  2  0  0  0  0
 19 21  1  0  0  0  0
 22 21  1  6  0  0  0
 22 23  1  0  0  0  0
 23 24  1  0  0  0  0
 24 25  1  0  0  0  0
 24 26  1  0  0  0  0
 22 27  1  0  0  0  0
 27 28  2  0  0  0  0
 27 29  1  0  0  0  0
 30 29  1  6  0  0  0
 30 31  1  0  0  0  0
 31 32  2  0  0  0  0
 32 33  1  0  0  0  0
 33 34  2  0  0  0  0
 33 35  1  0  0  0  0
 35 36  1  0  0  0  0
 36 37  1  0  0  0  0
 38 39  2  0  0  0  0
 40 41  1  0  0  0  0
 41 42  2  0  0  0  0
 38 42  1  0  0  0  0
 39 37  1  0  0  0  0
 37 40  2  0  0  0  0
 30 43  1  0  0  0  0
 44 43  1  1  0  0  0
 45 46  1  0  0  0  0
 47 48  1  0  0  0  0
 45 48  1  0  0  0  0
 44 46  1  0  0  0  0
 44 47  1  0  0  0  0
 46 49  2  0  0  0  0
M  END
$$$$

  Mrv1823 04162023282D          

 49 51  0  0  1  0            999 V2000
   12.8417    1.5924    0.0000 C   0  0  0  0  0  0  0  0  0  0  0  0
   13.6566    1.7207    0.0000 O   0  0  0  0  0  0  0  0  0  0  0  0
   14.0305    0.9853    0.0000 N   0  0  0  0  0  0  0  0  0  0  0  0
   13.4466    0.4025    0.0000 C   0  0  0  0  0  0  0  0  0  0  0  0
   12.7119    0.7777    0.0000 C   0  0  0  0  0  0  0  0  0  0  0  0
   12.2588    2.1763    0.0000 C   0  0  0  0  0  0  0  0  0  0  0  0
   13.5749   -0.4125    0.0000 C   0  0  0  0  0  0  0  0  0  0  0  0
   12.9333   -0.9311    0.0000 O   0  0  0  0  0  0  0  0  0  0  0  0
   14.3449   -0.7088    0.0000 N   0  0  0  0  0  0  0  0  0  0  0  0
   14.9865   -0.1902    0.0000 C   0  0  2  0  0  0  0  0  0  0  0  0
   14.8582    0.6247    0.0000 C   0  0  0  0  0  0  0  0  0  0  0  0
   15.7564   -0.4866    0.0000 C   0  0  0  0  0  0  0  0  0  0  0  0
   15.8848   -1.3015    0.0000 O   0  0  0  0  0  0  0  0  0  0  0  0
   16.3980    0.0320    0.0000 N   0  0  0  0  0  0  0  0  0  0  0  0
   17.1680   -0.2643    0.0000 C   0  0  1  0  0  0  0  0  0  0  0  0
   17.2963   -1.0793    0.0000 C   0  0  0  0  0  0  0  0  0  0  0  0
   18.0662   -1.3756    0.0000 C   0  0  0  0  0  0  0  0  0  0  0  0
   16.6547   -1.5979    0.0000 C   0  0  0  0  0  0  0  0  0  0  0  0
   17.8096    0.2543    0.0000 C   0  0  0  0  0  0  0  0  0  0  0  0
   17.6813    1.0692    0.0000 O   0  0  0  0  0  0  0  0  0  0  0  0
   18.5795   -0.0421    0.0000 N   0  0  0  0  0  0  0  0  0  0  0  0
   19.2212    0.4765    0.0000 C   0  0  2  0  0  0  0  0  0  0  0  0
   19.0928    1.2915    0.0000 C   0  0  0  0  0  0  0  0  0  0  0  0
   19.7344    1.8101    0.0000 C   0  0  0  0  0  0  0  0  0  0  0  0
   19.6061    2.6251    0.0000 C   0  0  0  0  0  0  0  0  0  0  0  0
   20.5044    1.5138    0.0000 C   0  0  0  0  0  0  0  0  0  0  0  0
   19.9911    0.1802    0.0000 C   0  0  0  0  0  0  0  0  0  0  0  0
   20.1194   -0.6348    0.0000 O   0  0  0  0  0  0  0  0  0  0  0  0
   20.6327    0.6988    0.0000 N   0  0  0  0  0  0  0  0  0  0  0  0
   21.4026    0.4025    0.0000 C   0  0  2  0  0  0  0  0  0  0  0  0
   22.0443    0.9211    0.0000 C   0  0  0  0  0  0  0  0  0  0  0  0
   22.8142    0.6247    0.0000 C   0  0  0  0  0  0  0  0  0  0  0  0
   23.4558    1.1433    0.0000 C   0  0  0  0  0  0  0  0  0  0  0  0
   23.3275    1.9583    0.0000 O   0  0  0  0  0  0  0  0  0  0  0  0
   24.2257    0.8470    0.0000 O   0  0  0  0  0  0  0  0  0  0  0  0
   24.8674    1.3656    0.0000 C   0  0  0  0  0  0  0  0  0  0  0  0
   25.6373    1.0692    0.0000 C   0  0  0  0  0  0  0  0  0  0  0  0
   27.0488    1.2915    0.0000 C   0  0  0  0  0  0  0  0  0  0  0  0
   26.2789    1.5879    0.0000 C   0  0  0  0  0  0  0  0  0  0  0  0
   25.7656    0.2543    0.0000 C   0  0  0  0  0  0  0  0  0  0  0  0
   26.5355   -0.0421    0.0000 C   0  0  0  0  0  0  0  0  0  0  0  0
   27.1772    0.4765    0.0000 C   0  0  0  0  0  0  0  0  0  0  0  0
   21.5310   -0.4125    0.0000 C   0  0  0  0  0  0  0  0  0  0  0  0
   22.3009   -0.7088    0.0000 C   0  0  1  0  0  0  0  0  0  0  0  0
   23.3375   -1.5499    0.0000 N   0  0  0  0  0  0  0  0  0  0  0  0
   22.5137   -1.5059    0.0000 C   0  0  0  0  0  0  0  0  0  0  0  0
   22.9932   -0.2601    0.0000 C   0  0  0  0  0  0  0  0  0  0  0  0
   23.6339   -0.7799    0.0000 C   0  0  0  0  0  0  0  0  0  0  0  0
   21.9939   -2.1466    0.0000 O   0  0  0  0  0  0  0  0  0  0  0  0
  1  2  1  0  0  0  0
  2  3  1  0  0  0  0
  3  4  2  0  0  0  0
  4  5  1  0  0  0  0
  1  5  2  0  0  0  0
  1  6  1  0  0  0  0
  4  7  1  0  0  0  0
  7  8  2  0  0  0  0
  7  9  1  0  0  0  0
 10  9  1  0  0  0  0
 10 11  1  6  0  0  0
 10 12  1  0  0  0  0
 12 13  2  0  0  0  0
 12 14  1  0  0  0  0
 15 14  1  6  0  0  0
 15 16  1  0  0  0  0
 16 17  1  0  0  0  0
 16 18  1  0  0  0  0
 15 19  1  0  0  0  0
 19 20  2  0  0  0  0
 19 21  1  0  0  0  0
 22 21  1  6  0  0  0
 22 23  1  0  0  0  0
 23 24  1  0  0  0  0
 24 25  1  0  0  0  0
 24 26  1  0  0  0  0
 22 27  1  0  0  0  0
 27 28  2  0  0  0  0
 27 29  1  0  0  0  0
 30 29  1  6  0  0  0
 30 31  1  0  0  0  0
 31 32  2  0  0  0  0
 32 33  1  0  0  0  0
 33 34  2  0  0  0  0
 33 35  1  0  0  0  0
 35 36  1  0  0  0  0
 36 37  1  0  0  0  0
 38 39  2  0  0  0  0
 40 41  1  0  0  0  0
 41 42  2  0  0  0  0
 38 42  1  0  0  0  0
 39 37  1  0  0  0  0
 37 40  2  0  0  0  0
 30 43  1  0  0  0  0
 44 43  1  6  0  0  0
 45 46  1  0  0  0  0
 47 48  1  0  0  0  0
 45 48  1  0  0  0  0
 44 46  1  0  0  0  0
 44 47  1  0  0  0  0
 46 49  2  0  0  0  0
M  END
$$$$

  Mrv1823 04162023282D          

 49 51  0  0  1  0            999 V2000
   12.8417    1.5924    0.0000 C   0  0  0  0  0  0  0  0  0  0  0  0
   13.6566    1.7207    0.0000 O   0  0  0  0  0  0  0  0  0  0  0  0
   14.0305    0.9853    0.0000 N   0  0  0  0  0  0  0  0  0  0  0  0
   13.4466    0.4025    0.0000 C   0  0  0  0  0  0  0  0  0  0  0  0
   12.7119    0.7777    0.0000 C   0  0  0  0  0  0  0  0  0  0  0  0
   12.2588    2.1763    0.0000 C   0  0  0  0  0  0  0  0  0  0  0  0
   13.5749   -0.4125    0.0000 C   0  0  0  0  0  0  0  0  0  0  0  0
   12.9333   -0.9311    0.0000 O   0  0  0  0  0  0  0  0  0  0  0  0
   14.3449   -0.7088    0.0000 N   0  0  0  0  0  0  0  0  0  0  0  0
   14.9865   -0.1902    0.0000 C   0  0  2  0  0  0  0  0  0  0  0  0
   14.8582    0.6247    0.0000 C   0  0  0  0  0  0  0  0  0  0  0  0
   15.7564   -0.4866    0.0000 C   0  0  0  0  0  0  0  0  0  0  0  0
   15.8848   -1.3015    0.0000 O   0  0  0  0  0  0  0  0  0  0  0  0
   16.3980    0.0320    0.0000 N   0  0  0  0  0  0  0  0  0  0  0  0
   17.1680   -0.2643    0.0000 C   0  0  1  0  0  0  0  0  0  0  0  0
   17.2963   -1.0793    0.0000 C   0  0  0  0  0  0  0  0  0  0  0  0
   18.0662   -1.3756    0.0000 C   0  0  0  0  0  0  0  0  0  0  0  0
   16.6547   -1.5979    0.0000 C   0  0  0  0  0  0  0  0  0  0  0  0
   17.8096    0.2543    0.0000 C   0  0  0  0  0  0  0  0  0  0  0  0
   17.6813    1.0692    0.0000 O   0  0  0  0  0  0  0  0  0  0  0  0
   18.5795   -0.0421    0.0000 N   0  0  0  0  0  0  0  0  0  0  0  0
   19.2212    0.4765    0.0000 C   0  0  2  0  0  0  0  0  0  0  0  0
   19.0928    1.2915    0.0000 C   0  0  0  0  0  0  0  0  0  0  0  0
   19.7344    1.8101    0.0000 C   0  0  0  0  0  0  0  0  0  0  0  0
   19.6061    2.6251    0.0000 C   0  0  0  0  0  0  0  0  0  0  0  0
   20.5044    1.5138    0.0000 C   0  0  0  0  0  0  0  0  0  0  0  0
   19.9911    0.1802    0.0000 C   0  0  0  0  0  0  0  0  0  0  0  0
   20.1194   -0.6348    0.0000 O   0  0  0  0  0  0  0  0  0  0  0  0
   20.6327    0.6988    0.0000 N   0  0  0  0  0  0  0  0  0  0  0  0
   21.4026    0.4025    0.0000 C   0  0  1  0  0  0  0  0  0  0  0  0
   22.0443    0.9211    0.0000 C   0  0  0  0  0  0  0  0  0  0  0  0
   22.8142    0.6247    0.0000 C   0  0  0  0  0  0  0  0  0  0  0  0
   23.4558    1.1433    0.0000 C   0  0  0  0  0  0  0  0  0  0  0  0
   23.3275    1.9583    0.0000 O   0  0  0  0  0  0  0  0  0  0  0  0
   24.2257    0.8470    0.0000 O   0  0  0  0  0  0  0  0  0  0  0  0
   24.8674    1.3656    0.0000 C   0  0  0  0  0  0  0  0  0  0  0  0
   25.6373    1.0692    0.0000 C   0  0  0  0  0  0  0  0  0  0  0  0
   27.0488    1.2915    0.0000 C   0  0  0  0  0  0  0  0  0  0  0  0
   26.2789    1.5879    0.0000 C   0  0  0  0  0  0  0  0  0  0  0  0
   25.7656    0.2543    0.0000 C   0  0  0  0  0  0  0  0  0  0  0  0
   26.5355   -0.0421    0.0000 C   0  0  0  0  0  0  0  0  0  0  0  0
   27.1772    0.4765    0.0000 C   0  0  0  0  0  0  0  0  0  0  0  0
   21.5310   -0.4125    0.0000 C   0  0  0  0  0  0  0  0  0  0  0  0
   22.3009   -0.7088    0.0000 C   0  0  2  0  0  0  0  0  0  0  0  0
   23.3375   -1.5499    0.0000 N   0  0  0  0  0  0  0  0  0  0  0  0
   22.5137   -1.5059    0.0000 C   0  0  0  0  0  0  0  0  0  0  0  0
   22.9932   -0.2601    0.0000 C   0  0  0  0  0  0  0  0  0  0  0  0
   23.6339   -0.7799    0.0000 C   0  0  0  0  0  0  0  0  0  0  0  0
   21.9939   -2.1466    0.0000 O   0  0  0  0  0  0  0  0  0  0  0  0
  1  2  1  0  0  0  0
  2  3  1  0  0  0  0
  3  4  2  0  0  0  0
  4  5  1  0  0  0  0
  1  5  2  0  0  0  0
  1  6  1  0  0  0  0
  4  7  1  0  0  0  0
  7  8  2  0  0  0  0
  7  9  1  0  0  0  0
 10  9  1  0  0  0  0
 10 11  1  6  0  0  0
 10 12  1  0  0  0  0
 12 13  2  0  0  0  0
 12 14  1  0  0  0  0
 15 14  1  6  0  0  0
 15 16  1  0  0  0  0
 16 17  1  0  0  0  0
 16 18  1  0  0  0  0
 15 19  1  0  0  0  0
 19 20  2  0  0  0  0
 19 21  1  0  0  0  0
 22 21  1  6  0  0  0
 22 23  1  0  0  0  0
 23 24  1  0  0  0  0
 24 25  1  0  0  0  0
 24 26  1  0  0  0  0
 22 27  1  0  0  0  0
 27 28  2  0  0  0  0
 27 29  1  0  0  0  0
 30 29  1  1  0  0  0
 30 31  1  0  0  0  0
 31 32  2  0  0  0  0
 32 33  1  0  0  0  0
 33 34  2  0  0  0  0
 33 35  1  0  0  0  0
 35 36  1  0  0  0  0
 36 37  1  0  0  0  0
 38 39  2  0  0  0  0
 40 41  1  0  0  0  0
 41 42  2  0  0  0  0
 38 42  1  0  0  0  0
 39 37  1  0  0  0  0
 37 40  2  0  0  0  0
 30 43  1  0  0  0  0
 44 43  1  1  0  0  0
 45 46  1  0  0  0  0
 47 48  1  0  0  0  0
 45 48  1  0  0  0  0
 44 46  1  0  0  0  0
 44 47  1  0  0  0  0
 46 49  2  0  0  0  0
M  END
$$$$

  Mrv1823 04162023282D          

 49 51  0  0  1  0            999 V2000
   12.8417    1.5924    0.0000 C   0  0  0  0  0  0  0  0  0  0  0  0
   13.6566    1.7207    0.0000 O   0  0  0  0  0  0  0  0  0  0  0  0
   14.0305    0.9853    0.0000 N   0  0  0  0  0  0  0  0  0  0  0  0
   13.4466    0.4025    0.0000 C   0  0  0  0  0  0  0  0  0  0  0  0
   12.7119    0.7777    0.0000 C   0  0  0  0  0  0  0  0  0  0  0  0
   12.2588    2.1763    0.0000 C   0  0  0  0  0  0  0  0  0  0  0  0
   13.5749   -0.4125    0.0000 C   0  0  0  0  0  0  0  0  0  0  0  0
   12.9333   -0.9311    0.0000 O   0  0  0  0  0  0  0  0  0  0  0  0
   14.3449   -0.7088    0.0000 N   0  0  0  0  0  0  0  0  0  0  0  0
   14.9865   -0.1902    0.0000 C   0  0  2  0  0  0  0  0  0  0  0  0
   14.8582    0.6247    0.0000 C   0  0  0  0  0  0  0  0  0  0  0  0
   15.7564   -0.4866    0.0000 C   0  0  0  0  0  0  0  0  0  0  0  0
   15.8848   -1.3015    0.0000 O   0  0  0  0  0  0  0  0  0  0  0  0
   16.3980    0.0320    0.0000 N   0  0  0  0  0  0  0  0  0  0  0  0
   17.1680   -0.2643    0.0000 C   0  0  1  0  0  0  0  0  0  0  0  0
   17.2963   -1.0793    0.0000 C   0  0  0  0  0  0  0  0  0  0  0  0
   18.0662   -1.3756    0.0000 C   0  0  0  0  0  0  0  0  0  0  0  0
   16.6547   -1.5979    0.0000 C   0  0  0  0  0  0  0  0  0  0  0  0
   17.8096    0.2543    0.0000 C   0  0  0  0  0  0  0  0  0  0  0  0
   17.6813    1.0692    0.0000 O   0  0  0  0  0  0  0  0  0  0  0  0
   18.5795   -0.0421    0.0000 N   0  0  0  0  0  0  0  0  0  0  0  0
   19.2212    0.4765    0.0000 C   0  0  2  0  0  0  0  0  0  0  0  0
   19.0928    1.2915    0.0000 C   0  0  0  0  0  0  0  0  0  0  0  0
   19.7344    1.8101    0.0000 C   0  0  0  0  0  0  0  0  0  0  0  0
   19.6061    2.6251    0.0000 C   0  0  0  0  0  0  0  0  0  0  0  0
   20.5044    1.5138    0.0000 C   0  0  0  0  0  0  0  0  0  0  0  0
   19.9911    0.1802    0.0000 C   0  0  0  0  0  0  0  0  0  0  0  0
   20.1194   -0.6348    0.0000 O   0  0  0  0  0  0  0  0  0  0  0  0
   20.6327    0.6988    0.0000 N   0  0  0  0  0  0  0  0  0  0  0  0
   21.4026    0.4025    0.0000 C   0  0  1  0  0  0  0  0  0  0  0  0
   22.0443    0.9211    0.0000 C   0  0  0  0  0  0  0  0  0  0  0  0
   22.8142    0.6247    0.0000 C   0  0  0  0  0  0  0  0  0  0  0  0
   23.4558    1.1433    0.0000 C   0  0  0  0  0  0  0  0  0  0  0  0
   23.3275    1.9583    0.0000 O   0  0  0  0  0  0  0  0  0  0  0  0
   24.2257    0.8470    0.0000 O   0  0  0  0  0  0  0  0  0  0  0  0
   24.8674    1.3656    0.0000 C   0  0  0  0  0  0  0  0  0  0  0  0
   25.6373    1.0692    0.0000 C   0  0  0  0  0  0  0  0  0  0  0  0
   27.0488    1.2915    0.0000 C   0  0  0  0  0  0  0  0  0  0  0  0
   26.2789    1.5879    0.0000 C   0  0  0  0  0  0  0  0  0  0  0  0
   25.7656    0.2543    0.0000 C   0  0  0  0  0  0  0  0  0  0  0  0
   26.5355   -0.0421    0.0000 C   0  0  0  0  0  0  0  0  0  0  0  0
   27.1772    0.4765    0.0000 C   0  0  0  0  0  0  0  0  0  0  0  0
   21.5310   -0.4125    0.0000 C   0  0  0  0  0  0  0  0  0  0  0  0
   22.3009   -0.7088    0.0000 C   0  0  1  0  0  0  0  0  0  0  0  0
   23.3375   -1.5499    0.0000 N   0  0  0  0  0  0  0  0  0  0  0  0
   22.5137   -1.5059    0.0000 C   0  0  0  0  0  0  0  0  0  0  0  0
   22.9932   -0.2601    0.0000 C   0  0  0  0  0  0  0  0  0  0  0  0
   23.6339   -0.7799    0.0000 C   0  0  0  0  0  0  0  0  0  0  0  0
   21.9939   -2.1466    0.0000 O   0  0  0  0  0  0  0  0  0  0  0  0
  1  2  1  0  0  0  0
  2  3  1  0  0  0  0
  3  4  2  0  0  0  0
  4  5  1  0  0  0  0
  1  5  2  0  0  0  0
  1  6  1  0  0  0  0
  4  7  1  0  0  0  0
  7  8  2  0  0  0  0
  7  9  1  0  0  0  0
 10  9  1  0  0  0  0
 10 11  1  6  0  0  0
 10 12  1  0  0  0  0
 12 13  2  0  0  0  0
 12 14  1  0  0  0  0
 15 14  1  6  0  0  0
 15 16  1  0  0  0  0
 16 17  1  0  0  0  0
 16 18  1  0  0  0  0
 15 19  1  0  0  0  0
 19 20  2  0  0  0  0
 19 21  1  0  0  0  0
 22 21  1  6  0  0  0
 22 23  1  0  0  0  0
 23 24  1  0  0  0  0
 24 25  1  0  0  0  0
 24 26  1  0  0  0  0
 22 27  1  0  0  0  0
 27 28  2  0  0  0  0
 27 29  1  0  0  0  0
 30 29  1  1  0  0  0
 30 31  1  0  0  0  0
 31 32  2  0  0  0  0
 32 33  1  0  0  0  0
 33 34  2  0  0  0  0
 33 35  1  0  0  0  0
 35 36  1  0  0  0  0
 36 37  1  0  0  0  0
 38 39  2  0  0  0  0
 40 41  1  0  0  0  0
 41 42  2  0  0  0  0
 38 42  1  0  0  0  0
 39 37  1  0  0  0  0
 37 40  2  0  0  0  0
 30 43  1  0  0  0  0
 44 43  1  6  0  0  0
 45 46  1  0  0  0  0
 47 48  1  0  0  0  0
 45 48  1  0  0  0  0
 44 46  1  0  0  0  0
 44 47  1  0  0  0  0
 46 49  2  0  0  0  0
M  END
$$$$

  Mrv1823 04162023282D          

 49 51  0  0  1  0            999 V2000
   12.8417    1.5924    0.0000 C   0  0  0  0  0  0  0  0  0  0  0  0
   13.6566    1.7207    0.0000 O   0  0  0  0  0  0  0  0  0  0  0  0
   14.0305    0.9853    0.0000 N   0  0  0  0  0  0  0  0  0  0  0  0
   13.4466    0.4025    0.0000 C   0  0  0  0  0  0  0  0  0  0  0  0
   12.7119    0.7777    0.0000 C   0  0  0  0  0  0  0  0  0  0  0  0
   12.2588    2.1763    0.0000 C   0  0  0  0  0  0  0  0  0  0  0  0
   13.5749   -0.4125    0.0000 C   0  0  0  0  0  0  0  0  0  0  0  0
   12.9333   -0.9311    0.0000 O   0  0  0  0  0  0  0  0  0  0  0  0
   14.3449   -0.7088    0.0000 N   0  0  0  0  0  0  0  0  0  0  0  0
   14.9865   -0.1902    0.0000 C   0  0  1  0  0  0  0  0  0  0  0  0
   14.8582    0.6247    0.0000 C   0  0  0  0  0  0  0  0  0  0  0  0
   15.7564   -0.4866    0.0000 C   0  0  0  0  0  0  0  0  0  0  0  0
   15.8848   -1.3015    0.0000 O   0  0  0  0  0  0  0  0  0  0  0  0
   16.3980    0.0320    0.0000 N   0  0  0  0  0  0  0  0  0  0  0  0
   17.1680   -0.2643    0.0000 C   0  0  1  0  0  0  0  0  0  0  0  0
   17.2963   -1.0793    0.0000 C   0  0  0  0  0  0  0  0  0  0  0  0
   18.0662   -1.3756    0.0000 C   0  0  0  0  0  0  0  0  0  0  0  0
   16.6547   -1.5979    0.0000 C   0  0  0  0  0  0  0  0  0  0  0  0
   17.8096    0.2543    0.0000 C   0  0  0  0  0  0  0  0  0  0  0  0
   17.6813    1.0692    0.0000 O   0  0  0  0  0  0  0  0  0  0  0  0
   18.5795   -0.0421    0.0000 N   0  0  0  0  0  0  0  0  0  0  0  0
   19.2212    0.4765    0.0000 C   0  0  2  0  0  0  0  0  0  0  0  0
   19.0928    1.2915    0.0000 C   0  0  0  0  0  0  0  0  0  0  0  0
   19.7344    1.8101    0.0000 C   0  0  0  0  0  0  0  0  0  0  0  0
   19.6061    2.6251    0.0000 C   0  0  0  0  0  0  0  0  0  0  0  0
   20.5044    1.5138    0.0000 C   0  0  0  0  0  0  0  0  0  0  0  0
   19.9911    0.1802    0.0000 C   0  0  0  0  0  0  0  0  0  0  0  0
   20.1194   -0.6348    0.0000 O   0  0  0  0  0  0  0  0  0  0  0  0
   20.6327    0.6988    0.0000 N   0  0  0  0  0  0  0  0  0  0  0  0
   21.4026    0.4025    0.0000 C   0  0  2  0  0  0  0  0  0  0  0  0
   22.0443    0.9211    0.0000 C   0  0  0  0  0  0  0  0  0  0  0  0
   22.8142    0.6247    0.0000 C   0  0  0  0  0  0  0  0  0  0  0  0
   23.4558    1.1433    0.0000 C   0  0  0  0  0  0  0  0  0  0  0  0
   23.3275    1.9583    0.0000 O   0  0  0  0  0  0  0  0  0  0  0  0
   24.2257    0.8470    0.0000 O   0  0  0  0  0  0  0  0  0  0  0  0
   24.8674    1.3656    0.0000 C   0  0  0  0  0  0  0  0  0  0  0  0
   25.6373    1.0692    0.0000 C   0  0  0  0  0  0  0  0  0  0  0  0
   27.0488    1.2915    0.0000 C   0  0  0  0  0  0  0  0  0  0  0  0
   26.2789    1.5879    0.0000 C   0  0  0  0  0  0  0  0  0  0  0  0
   25.7656    0.2543    0.0000 C   0  0  0  0  0  0  0  0  0  0  0  0
   26.5355   -0.0421    0.0000 C   0  0  0  0  0  0  0  0  0  0  0  0
   27.1772    0.4765    0.0000 C   0  0  0  0  0  0  0  0  0  0  0  0
   21.5310   -0.4125    0.0000 C   0  0  0  0  0  0  0  0  0  0  0  0
   22.3009   -0.7088    0.0000 C   0  0  2  0  0  0  0  0  0  0  0  0
   23.3375   -1.5499    0.0000 N   0  0  0  0  0  0  0  0  0  0  0  0
   22.5137   -1.5059    0.0000 C   0  0  0  0  0  0  0  0  0  0  0  0
   22.9932   -0.2601    0.0000 C   0  0  0  0  0  0  0  0  0  0  0  0
   23.6339   -0.7799    0.0000 C   0  0  0  0  0  0  0  0  0  0  0  0
   21.9939   -2.1466    0.0000 O   0  0  0  0  0  0  0  0  0  0  0  0
  1  2  1  0  0  0  0
  2  3  1  0  0  0  0
  3  4  2  0  0  0  0
  4  5  1  0  0  0  0
  1  5  2  0  0  0  0
  1  6  1  0  0  0  0
  4  7  1  0  0  0  0
  7  8  2  0  0  0  0
  7  9  1  0  0  0  0
 10  9  1  0  0  0  0
 10 11  1  1  0  0  0
 10 12  1  0  0  0  0
 12 13  2  0  0  0  0
 12 14  1  0  0  0  0
 15 14  1  6  0  0  0
 15 16  1  0  0  0  0
 16 17  1  0  0  0  0
 16 18  1  0  0  0  0
 15 19  1  0  0  0  0
 19 20  2  0  0  0  0
 19 21  1  0  0  0  0
 22 21  1  6  0  0  0
 22 23  1  0  0  0  0
 23 24  1  0  0  0  0
 24 25  1  0  0  0  0
 24 26  1  0  0  0  0
 22 27  1  0  0  0  0
 27 28  2  0  0  0  0
 27 29  1  0  0  0  0
 30 29  1  6  0  0  0
 30 31  1  0  0  0  0
 31 32  2  0  0  0  0
 32 33  1  0  0  0  0
 33 34  2  0  0  0  0
 33 35  1  0  0  0  0
 35 36  1  0  0  0  0
 36 37  1  0  0  0  0
 38 39  2  0  0  0  0
 40 41  1  0  0  0  0
 41 42  2  0  0  0  0
 38 42  1  0  0  0  0
 39 37  1  0  0  0  0
 37 40  2  0  0  0  0
 30 43  1  0  0  0  0
 44 43  1  1  0  0  0
 45 46  1  0  0  0  0
 47 48  1  0  0  0  0
 45 48  1  0  0  0  0
 44 46  1  0  0  0  0
 44 47  1  0  0  0  0
 46 49  2  0  0  0  0
M  END
$$$$

  Mrv1823 04162023282D          

 49 51  0  0  1  0            999 V2000
   12.8417    1.5924    0.0000 C   0  0  0  0  0  0  0  0  0  0  0  0
   13.6566    1.7207    0.0000 O   0  0  0  0  0  0  0  0  0  0  0  0
   14.0305    0.9853    0.0000 N   0  0  0  0  0  0  0  0  0  0  0  0
   13.4466    0.4025    0.0000 C   0  0  0  0  0  0  0  0  0  0  0  0
   12.7119    0.7777    0.0000 C   0  0  0  0  0  0  0  0  0  0  0  0
   12.2588    2.1763    0.0000 C   0  0  0  0  0  0  0  0  0  0  0  0
   13.5749   -0.4125    0.0000 C   0  0  0  0  0  0  0  0  0  0  0  0
   12.9333   -0.9311    0.0000 O   0  0  0  0  0  0  0  0  0  0  0  0
   14.3449   -0.7088    0.0000 N   0  0  0  0  0  0  0  0  0  0  0  0
   14.9865   -0.1902    0.0000 C   0  0  1  0  0  0  0  0  0  0  0  0
   14.8582    0.6247    0.0000 C   0  0  0  0  0  0  0  0  0  0  0  0
   15.7564   -0.4866    0.0000 C   0  0  0  0  0  0  0  0  0  0  0  0
   15.8848   -1.3015    0.0000 O   0  0  0  0  0  0  0  0  0  0  0  0
   16.3980    0.0320    0.0000 N   0  0  0  0  0  0  0  0  0  0  0  0
   17.1680   -0.2643    0.0000 C   0  0  1  0  0  0  0  0  0  0  0  0
   17.2963   -1.0793    0.0000 C   0  0  0  0  0  0  0  0  0  0  0  0
   18.0662   -1.3756    0.0000 C   0  0  0  0  0  0  0  0  0  0  0  0
   16.6547   -1.5979    0.0000 C   0  0  0  0  0  0  0  0  0  0  0  0
   17.8096    0.2543    0.0000 C   0  0  0  0  0  0  0  0  0  0  0  0
   17.6813    1.0692    0.0000 O   0  0  0  0  0  0  0  0  0  0  0  0
   18.5795   -0.0421    0.0000 N   0  0  0  0  0  0  0  0  0  0  0  0
   19.2212    0.4765    0.0000 C   0  0  2  0  0  0  0  0  0  0  0  0
   19.0928    1.2915    0.0000 C   0  0  0  0  0  0  0  0  0  0  0  0
   19.7344    1.8101    0.0000 C   0  0  0  0  0  0  0  0  0  0  0  0
   19.6061    2.6251    0.0000 C   0  0  0  0  0  0  0  0  0  0  0  0
   20.5044    1.5138    0.0000 C   0  0  0  0  0  0  0  0  0  0  0  0
   19.9911    0.1802    0.0000 C   0  0  0  0  0  0  0  0  0  0  0  0
   20.1194   -0.6348    0.0000 O   0  0  0  0  0  0  0  0  0  0  0  0
   20.6327    0.6988    0.0000 N   0  0  0  0  0  0  0  0  0  0  0  0
   21.4026    0.4025    0.0000 C   0  0  2  0  0  0  0  0  0  0  0  0
   22.0443    0.9211    0.0000 C   0  0  0  0  0  0  0  0  0  0  0  0
   22.8142    0.6247    0.0000 C   0  0  0  0  0  0  0  0  0  0  0  0
   23.4558    1.1433    0.0000 C   0  0  0  0  0  0  0  0  0  0  0  0
   23.3275    1.9583    0.0000 O   0  0  0  0  0  0  0  0  0  0  0  0
   24.2257    0.8470    0.0000 O   0  0  0  0  0  0  0  0  0  0  0  0
   24.8674    1.3656    0.0000 C   0  0  0  0  0  0  0  0  0  0  0  0
   25.6373    1.0692    0.0000 C   0  0  0  0  0  0  0  0  0  0  0  0
   27.0488    1.2915    0.0000 C   0  0  0  0  0  0  0  0  0  0  0  0
   26.2789    1.5879    0.0000 C   0  0  0  0  0  0  0  0  0  0  0  0
   25.7656    0.2543    0.0000 C   0  0  0  0  0  0  0  0  0  0  0  0
   26.5355   -0.0421    0.0000 C   0  0  0  0  0  0  0  0  0  0  0  0
   27.1772    0.4765    0.0000 C   0  0  0  0  0  0  0  0  0  0  0  0
   21.5310   -0.4125    0.0000 C   0  0  0  0  0  0  0  0  0  0  0  0
   22.3009   -0.7088    0.0000 C   0  0  1  0  0  0  0  0  0  0  0  0
   23.3375   -1.5499    0.0000 N   0  0  0  0  0  0  0  0  0  0  0  0
   22.5137   -1.5059    0.0000 C   0  0  0  0  0  0  0  0  0  0  0  0
   22.9932   -0.2601    0.0000 C   0  0  0  0  0  0  0  0  0  0  0  0
   23.6339   -0.7799    0.0000 C   0  0  0  0  0  0  0  0  0  0  0  0
   21.9939   -2.1466    0.0000 O   0  0  0  0  0  0  0  0  0  0  0  0
  1  2  1  0  0  0  0
  2  3  1  0  0  0  0
  3  4  2  0  0  0  0
  4  5  1  0  0  0  0
  1  5  2  0  0  0  0
  1  6  1  0  0  0  0
  4  7  1  0  0  0  0
  7  8  2  0  0  0  0
  7  9  1  0  0  0  0
 10  9  1  0  0  0  0
 10 11  1  1  0  0  0
 10 12  1  0  0  0  0
 12 13  2  0  0  0  0
 12 14  1  0  0  0  0
 15 14  1  6  0  0  0
 15 16  1  0  0  0  0
 16 17  1  0  0  0  0
 16 18  1  0  0  0  0
 15 19  1  0  0  0  0
 19 20  2  0  0  0  0
 19 21  1  0  0  0  0
 22 21  1  6  0  0  0
 22 23  1  0  0  0  0
 23 24  1  0  0  0  0
 24 25  1  0  0  0  0
 24 26  1  0  0  0  0
 22 27  1  0  0  0  0
 27 28  2  0  0  0  0
 27 29  1  0  0  0  0
 30 29  1  6  0  0  0
 30 31  1  0  0  0  0
 31 32  2  0  0  0  0
 32 33  1  0  0  0  0
 33 34  2  0  0  0  0
 33 35  1  0  0  0  0
 35 36  1  0  0  0  0
 36 37  1  0  0  0  0
 38 39  2  0  0  0  0
 40 41  1  0  0  0  0
 41 42  2  0  0  0  0
 38 42  1  0  0  0  0
 39 37  1  0  0  0  0
 37 40  2  0  0  0  0
 30 43  1  0  0  0  0
 44 43  1  6  0  0  0
 45 46  1  0  0  0  0
 47 48  1  0  0  0  0
 45 48  1  0  0  0  0
 44 46  1  0  0  0  0
 44 47  1  0  0  0  0
 46 49  2  0  0  0  0
M  END
$$$$

  Mrv1823 04162023282D          

 49 51  0  0  1  0            999 V2000
   12.8417    1.5924    0.0000 C   0  0  0  0  0  0  0  0  0  0  0  0
   13.6566    1.7207    0.0000 O   0  0  0  0  0  0  0  0  0  0  0  0
   14.0305    0.9853    0.0000 N   0  0  0  0  0  0  0  0  0  0  0  0
   13.4466    0.4025    0.0000 C   0  0  0  0  0  0  0  0  0  0  0  0
   12.7119    0.7777    0.0000 C   0  0  0  0  0  0  0  0  0  0  0  0
   12.2588    2.1763    0.0000 C   0  0  0  0  0  0  0  0  0  0  0  0
   13.5749   -0.4125    0.0000 C   0  0  0  0  0  0  0  0  0  0  0  0
   12.9333   -0.9311    0.0000 O   0  0  0  0  0  0  0  0  0  0  0  0
   14.3449   -0.7088    0.0000 N   0  0  0  0  0  0  0  0  0  0  0  0
   14.9865   -0.1902    0.0000 C   0  0  1  0  0  0  0  0  0  0  0  0
   14.8582    0.6247    0.0000 C   0  0  0  0  0  0  0  0  0  0  0  0
   15.7564   -0.4866    0.0000 C   0  0  0  0  0  0  0  0  0  0  0  0
   15.8848   -1.3015    0.0000 O   0  0  0  0  0  0  0  0  0  0  0  0
   16.3980    0.0320    0.0000 N   0  0  0  0  0  0  0  0  0  0  0  0
   17.1680   -0.2643    0.0000 C   0  0  1  0  0  0  0  0  0  0  0  0
   17.2963   -1.0793    0.0000 C   0  0  0  0  0  0  0  0  0  0  0  0
   18.0662   -1.3756    0.0000 C   0  0  0  0  0  0  0  0  0  0  0  0
   16.6547   -1.5979    0.0000 C   0  0  0  0  0  0  0  0  0  0  0  0
   17.8096    0.2543    0.0000 C   0  0  0  0  0  0  0  0  0  0  0  0
   17.6813    1.0692    0.0000 O   0  0  0  0  0  0  0  0  0  0  0  0
   18.5795   -0.0421    0.0000 N   0  0  0  0  0  0  0  0  0  0  0  0
   19.2212    0.4765    0.0000 C   0  0  2  0  0  0  0  0  0  0  0  0
   19.0928    1.2915    0.0000 C   0  0  0  0  0  0  0  0  0  0  0  0
   19.7344    1.8101    0.0000 C   0  0  0  0  0  0  0  0  0  0  0  0
   19.6061    2.6251    0.0000 C   0  0  0  0  0  0  0  0  0  0  0  0
   20.5044    1.5138    0.0000 C   0  0  0  0  0  0  0  0  0  0  0  0
   19.9911    0.1802    0.0000 C   0  0  0  0  0  0  0  0  0  0  0  0
   20.1194   -0.6348    0.0000 O   0  0  0  0  0  0  0  0  0  0  0  0
   20.6327    0.6988    0.0000 N   0  0  0  0  0  0  0  0  0  0  0  0
   21.4026    0.4025    0.0000 C   0  0  1  0  0  0  0  0  0  0  0  0
   22.0443    0.9211    0.0000 C   0  0  0  0  0  0  0  0  0  0  0  0
   22.8142    0.6247    0.0000 C   0  0  0  0  0  0  0  0  0  0  0  0
   23.4558    1.1433    0.0000 C   0  0  0  0  0  0  0  0  0  0  0  0
   23.3275    1.9583    0.0000 O   0  0  0  0  0  0  0  0  0  0  0  0
   24.2257    0.8470    0.0000 O   0  0  0  0  0  0  0  0  0  0  0  0
   24.8674    1.3656    0.0000 C   0  0  0  0  0  0  0  0  0  0  0  0
   25.6373    1.0692    0.0000 C   0  0  0  0  0  0  0  0  0  0  0  0
   27.0488    1.2915    0.0000 C   0  0  0  0  0  0  0  0  0  0  0  0
   26.2789    1.5879    0.0000 C   0  0  0  0  0  0  0  0  0  0  0  0
   25.7656    0.2543    0.0000 C   0  0  0  0  0  0  0  0  0  0  0  0
   26.5355   -0.0421    0.0000 C   0  0  0  0  0  0  0  0  0  0  0  0
   27.1772    0.4765    0.0000 C   0  0  0  0  0  0  0  0  0  0  0  0
   21.5310   -0.4125    0.0000 C   0  0  0  0  0  0  0  0  0  0  0  0
   22.3009   -0.7088    0.0000 C   0  0  2  0  0  0  0  0  0  0  0  0
   23.3375   -1.5499    0.0000 N   0  0  0  0  0  0  0  0  0  0  0  0
   22.5137   -1.5059    0.0000 C   0  0  0  0  0  0  0  0  0  0  0  0
   22.9932   -0.2601    0.0000 C   0  0  0  0  0  0  0  0  0  0  0  0
   23.6339   -0.7799    0.0000 C   0  0  0  0  0  0  0  0  0  0  0  0
   21.9939   -2.1466    0.0000 O   0  0  0  0  0  0  0  0  0  0  0  0
  1  2  1  0  0  0  0
  2  3  1  0  0  0  0
  3  4  2  0  0  0  0
  4  5  1  0  0  0  0
  1  5  2  0  0  0  0
  1  6  1  0  0  0  0
  4  7  1  0  0  0  0
  7  8  2  0  0  0  0
  7  9  1  0  0  0  0
 10  9  1  0  0  0  0
 10 11  1  1  0  0  0
 10 12  1  0  0  0  0
 12 13  2  0  0  0  0
 12 14  1  0  0  0  0
 15 14  1  6  0  0  0
 15 16  1  0  0  0  0
 16 17  1  0  0  0  0
 16 18  1  0  0  0  0
 15 19  1  0  0  0  0
 19 20  2  0  0  0  0
 19 21  1  0  0  0  0
 22 21  1  6  0  0  0
 22 23  1  0  0  0  0
 23 24  1  0  0  0  0
 24 25  1  0  0  0  0
 24 26  1  0  0  0  0
 22 27  1  0  0  0  0
 27 28  2  0  0  0  0
 27 29  1  0  0  0  0
 30 29  1  1  0  0  0
 30 31  1  0  0  0  0
 31 32  2  0  0  0  0
 32 33  1  0  0  0  0
 33 34  2  0  0  0  0
 33 35  1  0  0  0  0
 35 36  1  0  0  0  0
 36 37  1  0  0  0  0
 38 39  2  0  0  0  0
 40 41  1  0  0  0  0
 41 42  2  0  0  0  0
 38 42  1  0  0  0  0
 39 37  1  0  0  0  0
 37 40  2  0  0  0  0
 30 43  1  0  0  0  0
 44 43  1  1  0  0  0
 45 46  1  0  0  0  0
 47 48  1  0  0  0  0
 45 48  1  0  0  0  0
 44 46  1  0  0  0  0
 44 47  1  0  0  0  0
 46 49  2  0  0  0  0
M  END
$$$$

  Mrv1823 04162023282D          

 49 51  0  0  1  0            999 V2000
   12.8417    1.5924    0.0000 C   0  0  0  0  0  0  0  0  0  0  0  0
   13.6566    1.7207    0.0000 O   0  0  0  0  0  0  0  0  0  0  0  0
   14.0305    0.9853    0.0000 N   0  0  0  0  0  0  0  0  0  0  0  0
   13.4466    0.4025    0.0000 C   0  0  0  0  0  0  0  0  0  0  0  0
   12.7119    0.7777    0.0000 C   0  0  0  0  0  0  0  0  0  0  0  0
   12.2588    2.1763    0.0000 C   0  0  0  0  0  0  0  0  0  0  0  0
   13.5749   -0.4125    0.0000 C   0  0  0  0  0  0  0  0  0  0  0  0
   12.9333   -0.9311    0.0000 O   0  0  0  0  0  0  0  0  0  0  0  0
   14.3449   -0.7088    0.0000 N   0  0  0  0  0  0  0  0  0  0  0  0
   14.9865   -0.1902    0.0000 C   0  0  1  0  0  0  0  0  0  0  0  0
   14.8582    0.6247    0.0000 C   0  0  0  0  0  0  0  0  0  0  0  0
   15.7564   -0.4866    0.0000 C   0  0  0  0  0  0  0  0  0  0  0  0
   15.8848   -1.3015    0.0000 O   0  0  0  0  0  0  0  0  0  0  0  0
   16.3980    0.0320    0.0000 N   0  0  0  0  0  0  0  0  0  0  0  0
   17.1680   -0.2643    0.0000 C   0  0  1  0  0  0  0  0  0  0  0  0
   17.2963   -1.0793    0.0000 C   0  0  0  0  0  0  0  0  0  0  0  0
   18.0662   -1.3756    0.0000 C   0  0  0  0  0  0  0  0  0  0  0  0
   16.6547   -1.5979    0.0000 C   0  0  0  0  0  0  0  0  0  0  0  0
   17.8096    0.2543    0.0000 C   0  0  0  0  0  0  0  0  0  0  0  0
   17.6813    1.0692    0.0000 O   0  0  0  0  0  0  0  0  0  0  0  0
   18.5795   -0.0421    0.0000 N   0  0  0  0  0  0  0  0  0  0  0  0
   19.2212    0.4765    0.0000 C   0  0  2  0  0  0  0  0  0  0  0  0
   19.0928    1.2915    0.0000 C   0  0  0  0  0  0  0  0  0  0  0  0
   19.7344    1.8101    0.0000 C   0  0  0  0  0  0  0  0  0  0  0  0
   19.6061    2.6251    0.0000 C   0  0  0  0  0  0  0  0  0  0  0  0
   20.5044    1.5138    0.0000 C   0  0  0  0  0  0  0  0  0  0  0  0
   19.9911    0.1802    0.0000 C   0  0  0  0  0  0  0  0  0  0  0  0
   20.1194   -0.6348    0.0000 O   0  0  0  0  0  0  0  0  0  0  0  0
   20.6327    0.6988    0.0000 N   0  0  0  0  0  0  0  0  0  0  0  0
   21.4026    0.4025    0.0000 C   0  0  1  0  0  0  0  0  0  0  0  0
   22.0443    0.9211    0.0000 C   0  0  0  0  0  0  0  0  0  0  0  0
   22.8142    0.6247    0.0000 C   0  0  0  0  0  0  0  0  0  0  0  0
   23.4558    1.1433    0.0000 C   0  0  0  0  0  0  0  0  0  0  0  0
   23.3275    1.9583    0.0000 O   0  0  0  0  0  0  0  0  0  0  0  0
   24.2257    0.8470    0.0000 O   0  0  0  0  0  0  0  0  0  0  0  0
   24.8674    1.3656    0.0000 C   0  0  0  0  0  0  0  0  0  0  0  0
   25.6373    1.0692    0.0000 C   0  0  0  0  0  0  0  0  0  0  0  0
   27.0488    1.2915    0.0000 C   0  0  0  0  0  0  0  0  0  0  0  0
   26.2789    1.5879    0.0000 C   0  0  0  0  0  0  0  0  0  0  0  0
   25.7656    0.2543    0.0000 C   0  0  0  0  0  0  0  0  0  0  0  0
   26.5355   -0.0421    0.0000 C   0  0  0  0  0  0  0  0  0  0  0  0
   27.1772    0.4765    0.0000 C   0  0  0  0  0  0  0  0  0  0  0  0
   21.5310   -0.4125    0.0000 C   0  0  0  0  0  0  0  0  0  0  0  0
   22.3009   -0.7088    0.0000 C   0  0  1  0  0  0  0  0  0  0  0  0
   23.3375   -1.5499    0.0000 N   0  0  0  0  0  0  0  0  0  0  0  0
   22.5137   -1.5059    0.0000 C   0  0  0  0  0  0  0  0  0  0  0  0
   22.9932   -0.2601    0.0000 C   0  0  0  0  0  0  0  0  0  0  0  0
   23.6339   -0.7799    0.0000 C   0  0  0  0  0  0  0  0  0  0  0  0
   21.9939   -2.1466    0.0000 O   0  0  0  0  0  0  0  0  0  0  0  0
  1  2  1  0  0  0  0
  2  3  1  0  0  0  0
  3  4  2  0  0  0  0
  4  5  1  0  0  0  0
  1  5  2  0  0  0  0
  1  6  1  0  0  0  0
  4  7  1  0  0  0  0
  7  8  2  0  0  0  0
  7  9  1  0  0  0  0
 10  9  1  0  0  0  0
 10 11  1  1  0  0  0
 10 12  1  0  0  0  0
 12 13  2  0  0  0  0
 12 14  1  0  0  0  0
 15 14  1  6  0  0  0
 15 16  1  0  0  0  0
 16 17  1  0  0  0  0
 16 18  1  0  0  0  0
 15 19  1  0  0  0  0
 19 20  2  0  0  0  0
 19 21  1  0  0  0  0
 22 21  1  6  0  0  0
 22 23  1  0  0  0  0
 23 24  1  0  0  0  0
 24 25  1  0  0  0  0
 24 26  1  0  0  0  0
 22 27  1  0  0  0  0
 27 28  2  0  0  0  0
 27 29  1  0  0  0  0
 30 29  1  1  0  0  0
 30 31  1  0  0  0  0
 31 32  2  0  0  0  0
 32 33  1  0  0  0  0
 33 34  2  0  0  0  0
 33 35  1  0  0  0  0
 35 36  1  0  0  0  0
 36 37  1  0  0  0  0
 38 39  2  0  0  0  0
 40 41  1  0  0  0  0
 41 42  2  0  0  0  0
 38 42  1  0  0  0  0
 39 37  1  0  0  0  0
 37 40  2  0  0  0  0
 30 43  1  0  0  0  0
 44 43  1  6  0  0  0
 45 46  1  0  0  0  0
 47 48  1  0  0  0  0
 45 48  1  0  0  0  0
 44 46  1  0  0  0  0
 44 47  1  0  0  0  0
 46 49  2  0  0  0  0
M  END
$$$$

  Mrv1823 04162023282D          

 49 51  0  0  1  0            999 V2000
   12.8417    1.5924    0.0000 C   0  0  0  0  0  0  0  0  0  0  0  0
   13.6566    1.7207    0.0000 O   0  0  0  0  0  0  0  0  0  0  0  0
   14.0305    0.9853    0.0000 N   0  0  0  0  0  0  0  0  0  0  0  0
   13.4466    0.4025    0.0000 C   0  0  0  0  0  0  0  0  0  0  0  0
   12.7119    0.7777    0.0000 C   0  0  0  0  0  0  0  0  0  0  0  0
   12.2588    2.1763    0.0000 C   0  0  0  0  0  0  0  0  0  0  0  0
   13.5749   -0.4125    0.0000 C   0  0  0  0  0  0  0  0  0  0  0  0
   12.9333   -0.9311    0.0000 O   0  0  0  0  0  0  0  0  0  0  0  0
   14.3449   -0.7088    0.0000 N   0  0  0  0  0  0  0  0  0  0  0  0
   14.9865   -0.1902    0.0000 C   0  0  2  0  0  0  0  0  0  0  0  0
   14.8582    0.6247    0.0000 C   0  0  0  0  0  0  0  0  0  0  0  0
   15.7564   -0.4866    0.0000 C   0  0  0  0  0  0  0  0  0  0  0  0
   15.8848   -1.3015    0.0000 O   0  0  0  0  0  0  0  0  0  0  0  0
   16.3980    0.0320    0.0000 N   0  0  0  0  0  0  0  0  0  0  0  0
   17.1680   -0.2643    0.0000 C   0  0  1  0  0  0  0  0  0  0  0  0
   17.2963   -1.0793    0.0000 C   0  0  0  0  0  0  0  0  0  0  0  0
   18.0662   -1.3756    0.0000 C   0  0  0  0  0  0  0  0  0  0  0  0
   16.6547   -1.5979    0.0000 C   0  0  0  0  0  0  0  0  0  0  0  0
   17.8096    0.2543    0.0000 C   0  0  0  0  0  0  0  0  0  0  0  0
   17.6813    1.0692    0.0000 O   0  0  0  0  0  0  0  0  0  0  0  0
   18.5795   -0.0421    0.0000 N   0  0  0  0  0  0  0  0  0  0  0  0
   19.2212    0.4765    0.0000 C   0  0  1  0  0  0  0  0  0  0  0  0
   19.0928    1.2915    0.0000 C   0  0  0  0  0  0  0  0  0  0  0  0
   19.7344    1.8101    0.0000 C   0  0  0  0  0  0  0  0  0  0  0  0
   19.6061    2.6251    0.0000 C   0  0  0  0  0  0  0  0  0  0  0  0
   20.5044    1.5138    0.0000 C   0  0  0  0  0  0  0  0  0  0  0  0
   19.9911    0.1802    0.0000 C   0  0  0  0  0  0  0  0  0  0  0  0
   20.1194   -0.6348    0.0000 O   0  0  0  0  0  0  0  0  0  0  0  0
   20.6327    0.6988    0.0000 N   0  0  0  0  0  0  0  0  0  0  0  0
   21.4026    0.4025    0.0000 C   0  0  2  0  0  0  0  0  0  0  0  0
   22.0443    0.9211    0.0000 C   0  0  0  0  0  0  0  0  0  0  0  0
   22.8142    0.6247    0.0000 C   0  0  0  0  0  0  0  0  0  0  0  0
   23.4558    1.1433    0.0000 C   0  0  0  0  0  0  0  0  0  0  0  0
   23.3275    1.9583    0.0000 O   0  0  0  0  0  0  0  0  0  0  0  0
   24.2257    0.8470    0.0000 O   0  0  0  0  0  0  0  0  0  0  0  0
   24.8674    1.3656    0.0000 C   0  0  0  0  0  0  0  0  0  0  0  0
   25.6373    1.0692    0.0000 C   0  0  0  0  0  0  0  0  0  0  0  0
   27.0488    1.2915    0.0000 C   0  0  0  0  0  0  0  0  0  0  0  0
   26.2789    1.5879    0.0000 C   0  0  0  0  0  0  0  0  0  0  0  0
   25.7656    0.2543    0.0000 C   0  0  0  0  0  0  0  0  0  0  0  0
   26.5355   -0.0421    0.0000 C   0  0  0  0  0  0  0  0  0  0  0  0
   27.1772    0.4765    0.0000 C   0  0  0  0  0  0  0  0  0  0  0  0
   21.5310   -0.4125    0.0000 C   0  0  0  0  0  0  0  0  0  0  0  0
   22.3009   -0.7088    0.0000 C   0  0  2  0  0  0  0  0  0  0  0  0
   23.3375   -1.5499    0.0000 N   0  0  0  0  0  0  0  0  0  0  0  0
   22.5137   -1.5059    0.0000 C   0  0  0  0  0  0  0  0  0  0  0  0
   22.9932   -0.2601    0.0000 C   0  0  0  0  0  0  0  0  0  0  0  0
   23.6339   -0.7799    0.0000 C   0  0  0  0  0  0  0  0  0  0  0  0
   21.9939   -2.1466    0.0000 O   0  0  0  0  0  0  0  0  0  0  0  0
  1  2  1  0  0  0  0
  2  3  1  0  0  0  0
  3  4  2  0  0  0  0
  4  5  1  0  0  0  0
  1  5  2  0  0  0  0
  1  6  1  0  0  0  0
  4  7  1  0  0  0  0
  7  8  2  0  0  0  0
  7  9  1  0  0  0  0
 10  9  1  0  0  0  0
 10 11  1  6  0  0  0
 10 12  1  0  0  0  0
 12 13  2  0  0  0  0
 12 14  1  0  0  0  0
 15 14  1  6  0  0  0
 15 16  1  0  0  0  0
 16 17  1  0  0  0  0
 16 18  1  0  0  0  0
 15 19  1  0  0  0  0
 19 20  2  0  0  0  0
 19 21  1  0  0  0  0
 22 21  1  1  0  0  0
 22 23  1  0  0  0  0
 23 24  1  0  0  0  0
 24 25  1  0  0  0  0
 24 26  1  0  0  0  0
 22 27  1  0  0  0  0
 27 28  2  0  0  0  0
 27 29  1  0  0  0  0
 30 29  1  6  0  0  0
 30 31  1  0  0  0  0
 31 32  2  0  0  0  0
 32 33  1  0  0  0  0
 33 34  2  0  0  0  0
 33 35  1  0  0  0  0
 35 36  1  0  0  0  0
 36 37  1  0  0  0  0
 38 39  2  0  0  0  0
 40 41  1  0  0  0  0
 41 42  2  0  0  0  0
 38 42  1  0  0  0  0
 39 37  1  0  0  0  0
 37 40  2  0  0  0  0
 30 43  1  0  0  0  0
 44 43  1  1  0  0  0
 45 46  1  0  0  0  0
 47 48  1  0  0  0  0
 45 48  1  0  0  0  0
 44 46  1  0  0  0  0
 44 47  1  0  0  0  0
 46 49  2  0  0  0  0
M  END
$$$$

  Mrv1823 04162023282D          

 49 51  0  0  1  0            999 V2000
   12.8417    1.5924    0.0000 C   0  0  0  0  0  0  0  0  0  0  0  0
   13.6566    1.7207    0.0000 O   0  0  0  0  0  0  0  0  0  0  0  0
   14.0305    0.9853    0.0000 N   0  0  0  0  0  0  0  0  0  0  0  0
   13.4466    0.4025    0.0000 C   0  0  0  0  0  0  0  0  0  0  0  0
   12.7119    0.7777    0.0000 C   0  0  0  0  0  0  0  0  0  0  0  0
   12.2588    2.1763    0.0000 C   0  0  0  0  0  0  0  0  0  0  0  0
   13.5749   -0.4125    0.0000 C   0  0  0  0  0  0  0  0  0  0  0  0
   12.9333   -0.9311    0.0000 O   0  0  0  0  0  0  0  0  0  0  0  0
   14.3449   -0.7088    0.0000 N   0  0  0  0  0  0  0  0  0  0  0  0
   14.9865   -0.1902    0.0000 C   0  0  2  0  0  0  0  0  0  0  0  0
   14.8582    0.6247    0.0000 C   0  0  0  0  0  0  0  0  0  0  0  0
   15.7564   -0.4866    0.0000 C   0  0  0  0  0  0  0  0  0  0  0  0
   15.8848   -1.3015    0.0000 O   0  0  0  0  0  0  0  0  0  0  0  0
   16.3980    0.0320    0.0000 N   0  0  0  0  0  0  0  0  0  0  0  0
   17.1680   -0.2643    0.0000 C   0  0  1  0  0  0  0  0  0  0  0  0
   17.2963   -1.0793    0.0000 C   0  0  0  0  0  0  0  0  0  0  0  0
   18.0662   -1.3756    0.0000 C   0  0  0  0  0  0  0  0  0  0  0  0
   16.6547   -1.5979    0.0000 C   0  0  0  0  0  0  0  0  0  0  0  0
   17.8096    0.2543    0.0000 C   0  0  0  0  0  0  0  0  0  0  0  0
   17.6813    1.0692    0.0000 O   0  0  0  0  0  0  0  0  0  0  0  0
   18.5795   -0.0421    0.0000 N   0  0  0  0  0  0  0  0  0  0  0  0
   19.2212    0.4765    0.0000 C   0  0  1  0  0  0  0  0  0  0  0  0
   19.0928    1.2915    0.0000 C   0  0  0  0  0  0  0  0  0  0  0  0
   19.7344    1.8101    0.0000 C   0  0  0  0  0  0  0  0  0  0  0  0
   19.6061    2.6251    0.0000 C   0  0  0  0  0  0  0  0  0  0  0  0
   20.5044    1.5138    0.0000 C   0  0  0  0  0  0  0  0  0  0  0  0
   19.9911    0.1802    0.0000 C   0  0  0  0  0  0  0  0  0  0  0  0
   20.1194   -0.6348    0.0000 O   0  0  0  0  0  0  0  0  0  0  0  0
   20.6327    0.6988    0.0000 N   0  0  0  0  0  0  0  0  0  0  0  0
   21.4026    0.4025    0.0000 C   0  0  2  0  0  0  0  0  0  0  0  0
   22.0443    0.9211    0.0000 C   0  0  0  0  0  0  0  0  0  0  0  0
   22.8142    0.6247    0.0000 C   0  0  0  0  0  0  0  0  0  0  0  0
   23.4558    1.1433    0.0000 C   0  0  0  0  0  0  0  0  0  0  0  0
   23.3275    1.9583    0.0000 O   0  0  0  0  0  0  0  0  0  0  0  0
   24.2257    0.8470    0.0000 O   0  0  0  0  0  0  0  0  0  0  0  0
   24.8674    1.3656    0.0000 C   0  0  0  0  0  0  0  0  0  0  0  0
   25.6373    1.0692    0.0000 C   0  0  0  0  0  0  0  0  0  0  0  0
   27.0488    1.2915    0.0000 C   0  0  0  0  0  0  0  0  0  0  0  0
   26.2789    1.5879    0.0000 C   0  0  0  0  0  0  0  0  0  0  0  0
   25.7656    0.2543    0.0000 C   0  0  0  0  0  0  0  0  0  0  0  0
   26.5355   -0.0421    0.0000 C   0  0  0  0  0  0  0  0  0  0  0  0
   27.1772    0.4765    0.0000 C   0  0  0  0  0  0  0  0  0  0  0  0
   21.5310   -0.4125    0.0000 C   0  0  0  0  0  0  0  0  0  0  0  0
   22.3009   -0.7088    0.0000 C   0  0  1  0  0  0  0  0  0  0  0  0
   23.3375   -1.5499    0.0000 N   0  0  0  0  0  0  0  0  0  0  0  0
   22.5137   -1.5059    0.0000 C   0  0  0  0  0  0  0  0  0  0  0  0
   22.9932   -0.2601    0.0000 C   0  0  0  0  0  0  0  0  0  0  0  0
   23.6339   -0.7799    0.0000 C   0  0  0  0  0  0  0  0  0  0  0  0
   21.9939   -2.1466    0.0000 O   0  0  0  0  0  0  0  0  0  0  0  0
  1  2  1  0  0  0  0
  2  3  1  0  0  0  0
  3  4  2  0  0  0  0
  4  5  1  0  0  0  0
  1  5  2  0  0  0  0
  1  6  1  0  0  0  0
  4  7  1  0  0  0  0
  7  8  2  0  0  0  0
  7  9  1  0  0  0  0
 10  9  1  0  0  0  0
 10 11  1  6  0  0  0
 10 12  1  0  0  0  0
 12 13  2  0  0  0  0
 12 14  1  0  0  0  0
 15 14  1  6  0  0  0
 15 16  1  0  0  0  0
 16 17  1  0  0  0  0
 16 18  1  0  0  0  0
 15 19  1  0  0  0  0
 19 20  2  0  0  0  0
 19 21  1  0  0  0  0
 22 21  1  1  0  0  0
 22 23  1  0  0  0  0
 23 24  1  0  0  0  0
 24 25  1  0  0  0  0
 24 26  1  0  0  0  0
 22 27  1  0  0  0  0
 27 28  2  0  0  0  0
 27 29  1  0  0  0  0
 30 29  1  6  0  0  0
 30 31  1  0  0  0  0
 31 32  2  0  0  0  0
 32 33  1  0  0  0  0
 33 34  2  0  0  0  0
 33 35  1  0  0  0  0
 35 36  1  0  0  0  0
 36 37  1  0  0  0  0
 38 39  2  0  0  0  0
 40 41  1  0  0  0  0
 41 42  2  0  0  0  0
 38 42  1  0  0  0  0
 39 37  1  0  0  0  0
 37 40  2  0  0  0  0
 30 43  1  0  0  0  0
 44 43  1  6  0  0  0
 45 46  1  0  0  0  0
 47 48  1  0  0  0  0
 45 48  1  0  0  0  0
 44 46  1  0  0  0  0
 44 47  1  0  0  0  0
 46 49  2  0  0  0  0
M  END
$$$$

  Mrv1823 04162023282D          

 49 51  0  0  1  0            999 V2000
   12.8417    1.5924    0.0000 C   0  0  0  0  0  0  0  0  0  0  0  0
   13.6566    1.7207    0.0000 O   0  0  0  0  0  0  0  0  0  0  0  0
   14.0305    0.9853    0.0000 N   0  0  0  0  0  0  0  0  0  0  0  0
   13.4466    0.4025    0.0000 C   0  0  0  0  0  0  0  0  0  0  0  0
   12.7119    0.7777    0.0000 C   0  0  0  0  0  0  0  0  0  0  0  0
   12.2588    2.1763    0.0000 C   0  0  0  0  0  0  0  0  0  0  0  0
   13.5749   -0.4125    0.0000 C   0  0  0  0  0  0  0  0  0  0  0  0
   12.9333   -0.9311    0.0000 O   0  0  0  0  0  0  0  0  0  0  0  0
   14.3449   -0.7088    0.0000 N   0  0  0  0  0  0  0  0  0  0  0  0
   14.9865   -0.1902    0.0000 C   0  0  2  0  0  0  0  0  0  0  0  0
   14.8582    0.6247    0.0000 C   0  0  0  0  0  0  0  0  0  0  0  0
   15.7564   -0.4866    0.0000 C   0  0  0  0  0  0  0  0  0  0  0  0
   15.8848   -1.3015    0.0000 O   0  0  0  0  0  0  0  0  0  0  0  0
   16.3980    0.0320    0.0000 N   0  0  0  0  0  0  0  0  0  0  0  0
   17.1680   -0.2643    0.0000 C   0  0  1  0  0  0  0  0  0  0  0  0
   17.2963   -1.0793    0.0000 C   0  0  0  0  0  0  0  0  0  0  0  0
   18.0662   -1.3756    0.0000 C   0  0  0  0  0  0  0  0  0  0  0  0
   16.6547   -1.5979    0.0000 C   0  0  0  0  0  0  0  0  0  0  0  0
   17.8096    0.2543    0.0000 C   0  0  0  0  0  0  0  0  0  0  0  0
   17.6813    1.0692    0.0000 O   0  0  0  0  0  0  0  0  0  0  0  0
   18.5795   -0.0421    0.0000 N   0  0  0  0  0  0  0  0  0  0  0  0
   19.2212    0.4765    0.0000 C   0  0  1  0  0  0  0  0  0  0  0  0
   19.0928    1.2915    0.0000 C   0  0  0  0  0  0  0  0  0  0  0  0
   19.7344    1.8101    0.0000 C   0  0  0  0  0  0  0  0  0  0  0  0
   19.6061    2.6251    0.0000 C   0  0  0  0  0  0  0  0  0  0  0  0
   20.5044    1.5138    0.0000 C   0  0  0  0  0  0  0  0  0  0  0  0
   19.9911    0.1802    0.0000 C   0  0  0  0  0  0  0  0  0  0  0  0
   20.1194   -0.6348    0.0000 O   0  0  0  0  0  0  0  0  0  0  0  0
   20.6327    0.6988    0.0000 N   0  0  0  0  0  0  0  0  0  0  0  0
   21.4026    0.4025    0.0000 C   0  0  1  0  0  0  0  0  0  0  0  0
   22.0443    0.9211    0.0000 C   0  0  0  0  0  0  0  0  0  0  0  0
   22.8142    0.6247    0.0000 C   0  0  0  0  0  0  0  0  0  0  0  0
   23.4558    1.1433    0.0000 C   0  0  0  0  0  0  0  0  0  0  0  0
   23.3275    1.9583    0.0000 O   0  0  0  0  0  0  0  0  0  0  0  0
   24.2257    0.8470    0.0000 O   0  0  0  0  0  0  0  0  0  0  0  0
   24.8674    1.3656    0.0000 C   0  0  0  0  0  0  0  0  0  0  0  0
   25.6373    1.0692    0.0000 C   0  0  0  0  0  0  0  0  0  0  0  0
   27.0488    1.2915    0.0000 C   0  0  0  0  0  0  0  0  0  0  0  0
   26.2789    1.5879    0.0000 C   0  0  0  0  0  0  0  0  0  0  0  0
   25.7656    0.2543    0.0000 C   0  0  0  0  0  0  0  0  0  0  0  0
   26.5355   -0.0421    0.0000 C   0  0  0  0  0  0  0  0  0  0  0  0
   27.1772    0.4765    0.0000 C   0  0  0  0  0  0  0  0  0  0  0  0
   21.5310   -0.4125    0.0000 C   0  0  0  0  0  0  0  0  0  0  0  0
   22.3009   -0.7088    0.0000 C   0  0  2  0  0  0  0  0  0  0  0  0
   23.3375   -1.5499    0.0000 N   0  0  0  0  0  0  0  0  0  0  0  0
   22.5137   -1.5059    0.0000 C   0  0  0  0  0  0  0  0  0  0  0  0
   22.9932   -0.2601    0.0000 C   0  0  0  0  0  0  0  0  0  0  0  0
   23.6339   -0.7799    0.0000 C   0  0  0  0  0  0  0  0  0  0  0  0
   21.9939   -2.1466    0.0000 O   0  0  0  0  0  0  0  0  0  0  0  0
  1  2  1  0  0  0  0
  2  3  1  0  0  0  0
  3  4  2  0  0  0  0
  4  5  1  0  0  0  0
  1  5  2  0  0  0  0
  1  6  1  0  0  0  0
  4  7  1  0  0  0  0
  7  8  2  0  0  0  0
  7  9  1  0  0  0  0
 10  9  1  0  0  0  0
 10 11  1  6  0  0  0
 10 12  1  0  0  0  0
 12 13  2  0  0  0  0
 12 14  1  0  0  0  0
 15 14  1  6  0  0  0
 15 16  1  0  0  0  0
 16 17  1  0  0  0  0
 16 18  1  0  0  0  0
 15 19  1  0  0  0  0
 19 20  2  0  0  0  0
 19 21  1  0  0  0  0
 22 21  1  1  0  0  0
 22 23  1  0  0  0  0
 23 24  1  0  0  0  0
 24 25  1  0  0  0  0
 24 26  1  0  0  0  0
 22 27  1  0  0  0  0
 27 28  2  0  0  0  0
 27 29  1  0  0  0  0
 30 29  1  1  0  0  0
 30 31  1  0  0  0  0
 31 32  2  0  0  0  0
 32 33  1  0  0  0  0
 33 34  2  0  0  0  0
 33 35  1  0  0  0  0
 35 36  1  0  0  0  0
 36 37  1  0  0  0  0
 38 39  2  0  0  0  0
 40 41  1  0  0  0  0
 41 42  2  0  0  0  0
 38 42  1  0  0  0  0
 39 37  1  0  0  0  0
 37 40  2  0  0  0  0
 30 43  1  0  0  0  0
 44 43  1  1  0  0  0
 45 46  1  0  0  0  0
 47 48  1  0  0  0  0
 45 48  1  0  0  0  0
 44 46  1  0  0  0  0
 44 47  1  0  0  0  0
 46 49  2  0  0  0  0
M  END
$$$$

  Mrv1823 04162023282D          

 49 51  0  0  1  0            999 V2000
   12.8417    1.5924    0.0000 C   0  0  0  0  0  0  0  0  0  0  0  0
   13.6566    1.7207    0.0000 O   0  0  0  0  0  0  0  0  0  0  0  0
   14.0305    0.9853    0.0000 N   0  0  0  0  0  0  0  0  0  0  0  0
   13.4466    0.4025    0.0000 C   0  0  0  0  0  0  0  0  0  0  0  0
   12.7119    0.7777    0.0000 C   0  0  0  0  0  0  0  0  0  0  0  0
   12.2588    2.1763    0.0000 C   0  0  0  0  0  0  0  0  0  0  0  0
   13.5749   -0.4125    0.0000 C   0  0  0  0  0  0  0  0  0  0  0  0
   12.9333   -0.9311    0.0000 O   0  0  0  0  0  0  0  0  0  0  0  0
   14.3449   -0.7088    0.0000 N   0  0  0  0  0  0  0  0  0  0  0  0
   14.9865   -0.1902    0.0000 C   0  0  2  0  0  0  0  0  0  0  0  0
   14.8582    0.6247    0.0000 C   0  0  0  0  0  0  0  0  0  0  0  0
   15.7564   -0.4866    0.0000 C   0  0  0  0  0  0  0  0  0  0  0  0
   15.8848   -1.3015    0.0000 O   0  0  0  0  0  0  0  0  0  0  0  0
   16.3980    0.0320    0.0000 N   0  0  0  0  0  0  0  0  0  0  0  0
   17.1680   -0.2643    0.0000 C   0  0  1  0  0  0  0  0  0  0  0  0
   17.2963   -1.0793    0.0000 C   0  0  0  0  0  0  0  0  0  0  0  0
   18.0662   -1.3756    0.0000 C   0  0  0  0  0  0  0  0  0  0  0  0
   16.6547   -1.5979    0.0000 C   0  0  0  0  0  0  0  0  0  0  0  0
   17.8096    0.2543    0.0000 C   0  0  0  0  0  0  0  0  0  0  0  0
   17.6813    1.0692    0.0000 O   0  0  0  0  0  0  0  0  0  0  0  0
   18.5795   -0.0421    0.0000 N   0  0  0  0  0  0  0  0  0  0  0  0
   19.2212    0.4765    0.0000 C   0  0  1  0  0  0  0  0  0  0  0  0
   19.0928    1.2915    0.0000 C   0  0  0  0  0  0  0  0  0  0  0  0
   19.7344    1.8101    0.0000 C   0  0  0  0  0  0  0  0  0  0  0  0
   19.6061    2.6251    0.0000 C   0  0  0  0  0  0  0  0  0  0  0  0
   20.5044    1.5138    0.0000 C   0  0  0  0  0  0  0  0  0  0  0  0
   19.9911    0.1802    0.0000 C   0  0  0  0  0  0  0  0  0  0  0  0
   20.1194   -0.6348    0.0000 O   0  0  0  0  0  0  0  0  0  0  0  0
   20.6327    0.6988    0.0000 N   0  0  0  0  0  0  0  0  0  0  0  0
   21.4026    0.4025    0.0000 C   0  0  1  0  0  0  0  0  0  0  0  0
   22.0443    0.9211    0.0000 C   0  0  0  0  0  0  0  0  0  0  0  0
   22.8142    0.6247    0.0000 C   0  0  0  0  0  0  0  0  0  0  0  0
   23.4558    1.1433    0.0000 C   0  0  0  0  0  0  0  0  0  0  0  0
   23.3275    1.9583    0.0000 O   0  0  0  0  0  0  0  0  0  0  0  0
   24.2257    0.8470    0.0000 O   0  0  0  0  0  0  0  0  0  0  0  0
   24.8674    1.3656    0.0000 C   0  0  0  0  0  0  0  0  0  0  0  0
   25.6373    1.0692    0.0000 C   0  0  0  0  0  0  0  0  0  0  0  0
   27.0488    1.2915    0.0000 C   0  0  0  0  0  0  0  0  0  0  0  0
   26.2789    1.5879    0.0000 C   0  0  0  0  0  0  0  0  0  0  0  0
   25.7656    0.2543    0.0000 C   0  0  0  0  0  0  0  0  0  0  0  0
   26.5355   -0.0421    0.0000 C   0  0  0  0  0  0  0  0  0  0  0  0
   27.1772    0.4765    0.0000 C   0  0  0  0  0  0  0  0  0  0  0  0
   21.5310   -0.4125    0.0000 C   0  0  0  0  0  0  0  0  0  0  0  0
   22.3009   -0.7088    0.0000 C   0  0  1  0  0  0  0  0  0  0  0  0
   23.3375   -1.5499    0.0000 N   0  0  0  0  0  0  0  0  0  0  0  0
   22.5137   -1.5059    0.0000 C   0  0  0  0  0  0  0  0  0  0  0  0
   22.9932   -0.2601    0.0000 C   0  0  0  0  0  0  0  0  0  0  0  0
   23.6339   -0.7799    0.0000 C   0  0  0  0  0  0  0  0  0  0  0  0
   21.9939   -2.1466    0.0000 O   0  0  0  0  0  0  0  0  0  0  0  0
  1  2  1  0  0  0  0
  2  3  1  0  0  0  0
  3  4  2  0  0  0  0
  4  5  1  0  0  0  0
  1  5  2  0  0  0  0
  1  6  1  0  0  0  0
  4  7  1  0  0  0  0
  7  8  2  0  0  0  0
  7  9  1  0  0  0  0
 10  9  1  0  0  0  0
 10 11  1  6  0  0  0
 10 12  1  0  0  0  0
 12 13  2  0  0  0  0
 12 14  1  0  0  0  0
 15 14  1  6  0  0  0
 15 16  1  0  0  0  0
 16 17  1  0  0  0  0
 16 18  1  0  0  0  0
 15 19  1  0  0  0  0
 19 20  2  0  0  0  0
 19 21  1  0  0  0  0
 22 21  1  1  0  0  0
 22 23  1  0  0  0  0
 23 24  1  0  0  0  0
 24 25  1  0  0  0  0
 24 26  1  0  0  0  0
 22 27  1  0  0  0  0
 27 28  2  0  0  0  0
 27 29  1  0  0  0  0
 30 29  1  1  0  0  0
 30 31  1  0  0  0  0
 31 32  2  0  0  0  0
 32 33  1  0  0  0  0
 33 34  2  0  0  0  0
 33 35  1  0  0  0  0
 35 36  1  0  0  0  0
 36 37  1  0  0  0  0
 38 39  2  0  0  0  0
 40 41  1  0  0  0  0
 41 42  2  0  0  0  0
 38 42  1  0  0  0  0
 39 37  1  0  0  0  0
 37 40  2  0  0  0  0
 30 43  1  0  0  0  0
 44 43  1  6  0  0  0
 45 46  1  0  0  0  0
 47 48  1  0  0  0  0
 45 48  1  0  0  0  0
 44 46  1  0  0  0  0
 44 47  1  0  0  0  0
 46 49  2  0  0  0  0
M  END
$$$$

  Mrv1823 04162023282D          

 49 51  0  0  1  0            999 V2000
   12.8417    1.5924    0.0000 C   0  0  0  0  0  0  0  0  0  0  0  0
   13.6566    1.7207    0.0000 O   0  0  0  0  0  0  0  0  0  0  0  0
   14.0305    0.9853    0.0000 N   0  0  0  0  0  0  0  0  0  0  0  0
   13.4466    0.4025    0.0000 C   0  0  0  0  0  0  0  0  0  0  0  0
   12.7119    0.7777    0.0000 C   0  0  0  0  0  0  0  0  0  0  0  0
   12.2588    2.1763    0.0000 C   0  0  0  0  0  0  0  0  0  0  0  0
   13.5749   -0.4125    0.0000 C   0  0  0  0  0  0  0  0  0  0  0  0
   12.9333   -0.9311    0.0000 O   0  0  0  0  0  0  0  0  0  0  0  0
   14.3449   -0.7088    0.0000 N   0  0  0  0  0  0  0  0  0  0  0  0
   14.9865   -0.1902    0.0000 C   0  0  1  0  0  0  0  0  0  0  0  0
   14.8582    0.6247    0.0000 C   0  0  0  0  0  0  0  0  0  0  0  0
   15.7564   -0.4866    0.0000 C   0  0  0  0  0  0  0  0  0  0  0  0
   15.8848   -1.3015    0.0000 O   0  0  0  0  0  0  0  0  0  0  0  0
   16.3980    0.0320    0.0000 N   0  0  0  0  0  0  0  0  0  0  0  0
   17.1680   -0.2643    0.0000 C   0  0  1  0  0  0  0  0  0  0  0  0
   17.2963   -1.0793    0.0000 C   0  0  0  0  0  0  0  0  0  0  0  0
   18.0662   -1.3756    0.0000 C   0  0  0  0  0  0  0  0  0  0  0  0
   16.6547   -1.5979    0.0000 C   0  0  0  0  0  0  0  0  0  0  0  0
   17.8096    0.2543    0.0000 C   0  0  0  0  0  0  0  0  0  0  0  0
   17.6813    1.0692    0.0000 O   0  0  0  0  0  0  0  0  0  0  0  0
   18.5795   -0.0421    0.0000 N   0  0  0  0  0  0  0  0  0  0  0  0
   19.2212    0.4765    0.0000 C   0  0  1  0  0  0  0  0  0  0  0  0
   19.0928    1.2915    0.0000 C   0  0  0  0  0  0  0  0  0  0  0  0
   19.7344    1.8101    0.0000 C   0  0  0  0  0  0  0  0  0  0  0  0
   19.6061    2.6251    0.0000 C   0  0  0  0  0  0  0  0  0  0  0  0
   20.5044    1.5138    0.0000 C   0  0  0  0  0  0  0  0  0  0  0  0
   19.9911    0.1802    0.0000 C   0  0  0  0  0  0  0  0  0  0  0  0
   20.1194   -0.6348    0.0000 O   0  0  0  0  0  0  0  0  0  0  0  0
   20.6327    0.6988    0.0000 N   0  0  0  0  0  0  0  0  0  0  0  0
   21.4026    0.4025    0.0000 C   0  0  2  0  0  0  0  0  0  0  0  0
   22.0443    0.9211    0.0000 C   0  0  0  0  0  0  0  0  0  0  0  0
   22.8142    0.6247    0.0000 C   0  0  0  0  0  0  0  0  0  0  0  0
   23.4558    1.1433    0.0000 C   0  0  0  0  0  0  0  0  0  0  0  0
   23.3275    1.9583    0.0000 O   0  0  0  0  0  0  0  0  0  0  0  0
   24.2257    0.8470    0.0000 O   0  0  0  0  0  0  0  0  0  0  0  0
   24.8674    1.3656    0.0000 C   0  0  0  0  0  0  0  0  0  0  0  0
   25.6373    1.0692    0.0000 C   0  0  0  0  0  0  0  0  0  0  0  0
   27.0488    1.2915    0.0000 C   0  0  0  0  0  0  0  0  0  0  0  0
   26.2789    1.5879    0.0000 C   0  0  0  0  0  0  0  0  0  0  0  0
   25.7656    0.2543    0.0000 C   0  0  0  0  0  0  0  0  0  0  0  0
   26.5355   -0.0421    0.0000 C   0  0  0  0  0  0  0  0  0  0  0  0
   27.1772    0.4765    0.0000 C   0  0  0  0  0  0  0  0  0  0  0  0
   21.5310   -0.4125    0.0000 C   0  0  0  0  0  0  0  0  0  0  0  0
   22.3009   -0.7088    0.0000 C   0  0  2  0  0  0  0  0  0  0  0  0
   23.3375   -1.5499    0.0000 N   0  0  0  0  0  0  0  0  0  0  0  0
   22.5137   -1.5059    0.0000 C   0  0  0  0  0  0  0  0  0  0  0  0
   22.9932   -0.2601    0.0000 C   0  0  0  0  0  0  0  0  0  0  0  0
   23.6339   -0.7799    0.0000 C   0  0  0  0  0  0  0  0  0  0  0  0
   21.9939   -2.1466    0.0000 O   0  0  0  0  0  0  0  0  0  0  0  0
  1  2  1  0  0  0  0
  2  3  1  0  0  0  0
  3  4  2  0  0  0  0
  4  5  1  0  0  0  0
  1  5  2  0  0  0  0
  1  6  1  0  0  0  0
  4  7  1  0  0  0  0
  7  8  2  0  0  0  0
  7  9  1  0  0  0  0
 10  9  1  0  0  0  0
 10 11  1  1  0  0  0
 10 12  1  0  0  0  0
 12 13  2  0  0  0  0
 12 14  1  0  0  0  0
 15 14  1  6  0  0  0
 15 16  1  0  0  0  0
 16 17  1  0  0  0  0
 16 18  1  0  0  0  0
 15 19  1  0  0  0  0
 19 20  2  0  0  0  0
 19 21  1  0  0  0  0
 22 21  1  1  0  0  0
 22 23  1  0  0  0  0
 23 24  1  0  0  0  0
 24 25  1  0  0  0  0
 24 26  1  0  0  0  0
 22 27  1  0  0  0  0
 27 28  2  0  0  0  0
 27 29  1  0  0  0  0
 30 29  1  6  0  0  0
 30 31  1  0  0  0  0
 31 32  2  0  0  0  0
 32 33  1  0  0  0  0
 33 34  2  0  0  0  0
 33 35  1  0  0  0  0
 35 36  1  0  0  0  0
 36 37  1  0  0  0  0
 38 39  2  0  0  0  0
 40 41  1  0  0  0  0
 41 42  2  0  0  0  0
 38 42  1  0  0  0  0
 39 37  1  0  0  0  0
 37 40  2  0  0  0  0
 30 43  1  0  0  0  0
 44 43  1  1  0  0  0
 45 46  1  0  0  0  0
 47 48  1  0  0  0  0
 45 48  1  0  0  0  0
 44 46  1  0  0  0  0
 44 47  1  0  0  0  0
 46 49  2  0  0  0  0
M  END
$$$$

  Mrv1823 04162023282D          

 49 51  0  0  1  0            999 V2000
   12.8417    1.5924    0.0000 C   0  0  0  0  0  0  0  0  0  0  0  0
   13.6566    1.7207    0.0000 O   0  0  0  0  0  0  0  0  0  0  0  0
   14.0305    0.9853    0.0000 N   0  0  0  0  0  0  0  0  0  0  0  0
   13.4466    0.4025    0.0000 C   0  0  0  0  0  0  0  0  0  0  0  0
   12.7119    0.7777    0.0000 C   0  0  0  0  0  0  0  0  0  0  0  0
   12.2588    2.1763    0.0000 C   0  0  0  0  0  0  0  0  0  0  0  0
   13.5749   -0.4125    0.0000 C   0  0  0  0  0  0  0  0  0  0  0  0
   12.9333   -0.9311    0.0000 O   0  0  0  0  0  0  0  0  0  0  0  0
   14.3449   -0.7088    0.0000 N   0  0  0  0  0  0  0  0  0  0  0  0
   14.9865   -0.1902    0.0000 C   0  0  1  0  0  0  0  0  0  0  0  0
   14.8582    0.6247    0.0000 C   0  0  0  0  0  0  0  0  0  0  0  0
   15.7564   -0.4866    0.0000 C   0  0  0  0  0  0  0  0  0  0  0  0
   15.8848   -1.3015    0.0000 O   0  0  0  0  0  0  0  0  0  0  0  0
   16.3980    0.0320    0.0000 N   0  0  0  0  0  0  0  0  0  0  0  0
   17.1680   -0.2643    0.0000 C   0  0  1  0  0  0  0  0  0  0  0  0
   17.2963   -1.0793    0.0000 C   0  0  0  0  0  0  0  0  0  0  0  0
   18.0662   -1.3756    0.0000 C   0  0  0  0  0  0  0  0  0  0  0  0
   16.6547   -1.5979    0.0000 C   0  0  0  0  0  0  0  0  0  0  0  0
   17.8096    0.2543    0.0000 C   0  0  0  0  0  0  0  0  0  0  0  0
   17.6813    1.0692    0.0000 O   0  0  0  0  0  0  0  0  0  0  0  0
   18.5795   -0.0421    0.0000 N   0  0  0  0  0  0  0  0  0  0  0  0
   19.2212    0.4765    0.0000 C   0  0  1  0  0  0  0  0  0  0  0  0
   19.0928    1.2915    0.0000 C   0  0  0  0  0  0  0  0  0  0  0  0
   19.7344    1.8101    0.0000 C   0  0  0  0  0  0  0  0  0  0  0  0
   19.6061    2.6251    0.0000 C   0  0  0  0  0  0  0  0  0  0  0  0
   20.5044    1.5138    0.0000 C   0  0  0  0  0  0  0  0  0  0  0  0
   19.9911    0.1802    0.0000 C   0  0  0  0  0  0  0  0  0  0  0  0
   20.1194   -0.6348    0.0000 O   0  0  0  0  0  0  0  0  0  0  0  0
   20.6327    0.6988    0.0000 N   0  0  0  0  0  0  0  0  0  0  0  0
   21.4026    0.4025    0.0000 C   0  0  2  0  0  0  0  0  0  0  0  0
   22.0443    0.9211    0.0000 C   0  0  0  0  0  0  0  0  0  0  0  0
   22.8142    0.6247    0.0000 C   0  0  0  0  0  0  0  0  0  0  0  0
   23.4558    1.1433    0.0000 C   0  0  0  0  0  0  0  0  0  0  0  0
   23.3275    1.9583    0.0000 O   0  0  0  0  0  0  0  0  0  0  0  0
   24.2257    0.8470    0.0000 O   0  0  0  0  0  0  0  0  0  0  0  0
   24.8674    1.3656    0.0000 C   0  0  0  0  0  0  0  0  0  0  0  0
   25.6373    1.0692    0.0000 C   0  0  0  0  0  0  0  0  0  0  0  0
   27.0488    1.2915    0.0000 C   0  0  0  0  0  0  0  0  0  0  0  0
   26.2789    1.5879    0.0000 C   0  0  0  0  0  0  0  0  0  0  0  0
   25.7656    0.2543    0.0000 C   0  0  0  0  0  0  0  0  0  0  0  0
   26.5355   -0.0421    0.0000 C   0  0  0  0  0  0  0  0  0  0  0  0
   27.1772    0.4765    0.0000 C   0  0  0  0  0  0  0  0  0  0  0  0
   21.5310   -0.4125    0.0000 C   0  0  0  0  0  0  0  0  0  0  0  0
   22.3009   -0.7088    0.0000 C   0  0  1  0  0  0  0  0  0  0  0  0
   23.3375   -1.5499    0.0000 N   0  0  0  0  0  0  0  0  0  0  0  0
   22.5137   -1.5059    0.0000 C   0  0  0  0  0  0  0  0  0  0  0  0
   22.9932   -0.2601    0.0000 C   0  0  0  0  0  0  0  0  0  0  0  0
   23.6339   -0.7799    0.0000 C   0  0  0  0  0  0  0  0  0  0  0  0
   21.9939   -2.1466    0.0000 O   0  0  0  0  0  0  0  0  0  0  0  0
  1  2  1  0  0  0  0
  2  3  1  0  0  0  0
  3  4  2  0  0  0  0
  4  5  1  0  0  0  0
  1  5  2  0  0  0  0
  1  6  1  0  0  0  0
  4  7  1  0  0  0  0
  7  8  2  0  0  0  0
  7  9  1  0  0  0  0
 10  9  1  0  0  0  0
 10 11  1  1  0  0  0
 10 12  1  0  0  0  0
 12 13  2  0  0  0  0
 12 14  1  0  0  0  0
 15 14  1  6  0  0  0
 15 16  1  0  0  0  0
 16 17  1  0  0  0  0
 16 18  1  0  0  0  0
 15 19  1  0  0  0  0
 19 20  2  0  0  0  0
 19 21  1  0  0  0  0
 22 21  1  1  0  0  0
 22 23  1  0  0  0  0
 23 24  1  0  0  0  0
 24 25  1  0  0  0  0
 24 26  1  0  0  0  0
 22 27  1  0  0  0  0
 27 28  2  0  0  0  0
 27 29  1  0  0  0  0
 30 29  1  6  0  0  0
 30 31  1  0  0  0  0
 31 32  2  0  0  0  0
 32 33  1  0  0  0  0
 33 34  2  0  0  0  0
 33 35  1  0  0  0  0
 35 36  1  0  0  0  0
 36 37  1  0  0  0  0
 38 39  2  0  0  0  0
 40 41  1  0  0  0  0
 41 42  2  0  0  0  0
 38 42  1  0  0  0  0
 39 37  1  0  0  0  0
 37 40  2  0  0  0  0
 30 43  1  0  0  0  0
 44 43  1  6  0  0  0
 45 46  1  0  0  0  0
 47 48  1  0  0  0  0
 45 48  1  0  0  0  0
 44 46  1  0  0  0  0
 44 47  1  0  0  0  0
 46 49  2  0  0  0  0
M  END
$$$$

  Mrv1823 04162023282D          

 49 51  0  0  1  0            999 V2000
   12.8417    1.5924    0.0000 C   0  0  0  0  0  0  0  0  0  0  0  0
   13.6566    1.7207    0.0000 O   0  0  0  0  0  0  0  0  0  0  0  0
   14.0305    0.9853    0.0000 N   0  0  0  0  0  0  0  0  0  0  0  0
   13.4466    0.4025    0.0000 C   0  0  0  0  0  0  0  0  0  0  0  0
   12.7119    0.7777    0.0000 C   0  0  0  0  0  0  0  0  0  0  0  0
   12.2588    2.1763    0.0000 C   0  0  0  0  0  0  0  0  0  0  0  0
   13.5749   -0.4125    0.0000 C   0  0  0  0  0  0  0  0  0  0  0  0
   12.9333   -0.9311    0.0000 O   0  0  0  0  0  0  0  0  0  0  0  0
   14.3449   -0.7088    0.0000 N   0  0  0  0  0  0  0  0  0  0  0  0
   14.9865   -0.1902    0.0000 C   0  0  1  0  0  0  0  0  0  0  0  0
   14.8582    0.6247    0.0000 C   0  0  0  0  0  0  0  0  0  0  0  0
   15.7564   -0.4866    0.0000 C   0  0  0  0  0  0  0  0  0  0  0  0
   15.8848   -1.3015    0.0000 O   0  0  0  0  0  0  0  0  0  0  0  0
   16.3980    0.0320    0.0000 N   0  0  0  0  0  0  0  0  0  0  0  0
   17.1680   -0.2643    0.0000 C   0  0  1  0  0  0  0  0  0  0  0  0
   17.2963   -1.0793    0.0000 C   0  0  0  0  0  0  0  0  0  0  0  0
   18.0662   -1.3756    0.0000 C   0  0  0  0  0  0  0  0  0  0  0  0
   16.6547   -1.5979    0.0000 C   0  0  0  0  0  0  0  0  0  0  0  0
   17.8096    0.2543    0.0000 C   0  0  0  0  0  0  0  0  0  0  0  0
   17.6813    1.0692    0.0000 O   0  0  0  0  0  0  0  0  0  0  0  0
   18.5795   -0.0421    0.0000 N   0  0  0  0  0  0  0  0  0  0  0  0
   19.2212    0.4765    0.0000 C   0  0  1  0  0  0  0  0  0  0  0  0
   19.0928    1.2915    0.0000 C   0  0  0  0  0  0  0  0  0  0  0  0
   19.7344    1.8101    0.0000 C   0  0  0  0  0  0  0  0  0  0  0  0
   19.6061    2.6251    0.0000 C   0  0  0  0  0  0  0  0  0  0  0  0
   20.5044    1.5138    0.0000 C   0  0  0  0  0  0  0  0  0  0  0  0
   19.9911    0.1802    0.0000 C   0  0  0  0  0  0  0  0  0  0  0  0
   20.1194   -0.6348    0.0000 O   0  0  0  0  0  0  0  0  0  0  0  0
   20.6327    0.6988    0.0000 N   0  0  0  0  0  0  0  0  0  0  0  0
   21.4026    0.4025    0.0000 C   0  0  1  0  0  0  0  0  0  0  0  0
   22.0443    0.9211    0.0000 C   0  0  0  0  0  0  0  0  0  0  0  0
   22.8142    0.6247    0.0000 C   0  0  0  0  0  0  0  0  0  0  0  0
   23.4558    1.1433    0.0000 C   0  0  0  0  0  0  0  0  0  0  0  0
   23.3275    1.9583    0.0000 O   0  0  0  0  0  0  0  0  0  0  0  0
   24.2257    0.8470    0.0000 O   0  0  0  0  0  0  0  0  0  0  0  0
   24.8674    1.3656    0.0000 C   0  0  0  0  0  0  0  0  0  0  0  0
   25.6373    1.0692    0.0000 C   0  0  0  0  0  0  0  0  0  0  0  0
   27.0488    1.2915    0.0000 C   0  0  0  0  0  0  0  0  0  0  0  0
   26.2789    1.5879    0.0000 C   0  0  0  0  0  0  0  0  0  0  0  0
   25.7656    0.2543    0.0000 C   0  0  0  0  0  0  0  0  0  0  0  0
   26.5355   -0.0421    0.0000 C   0  0  0  0  0  0  0  0  0  0  0  0
   27.1772    0.4765    0.0000 C   0  0  0  0  0  0  0  0  0  0  0  0
   21.5310   -0.4125    0.0000 C   0  0  0  0  0  0  0  0  0  0  0  0
   22.3009   -0.7088    0.0000 C   0  0  2  0  0  0  0  0  0  0  0  0
   23.3375   -1.5499    0.0000 N   0  0  0  0  0  0  0  0  0  0  0  0
   22.5137   -1.5059    0.0000 C   0  0  0  0  0  0  0  0  0  0  0  0
   22.9932   -0.2601    0.0000 C   0  0  0  0  0  0  0  0  0  0  0  0
   23.6339   -0.7799    0.0000 C   0  0  0  0  0  0  0  0  0  0  0  0
   21.9939   -2.1466    0.0000 O   0  0  0  0  0  0  0  0  0  0  0  0
  1  2  1  0  0  0  0
  2  3  1  0  0  0  0
  3  4  2  0  0  0  0
  4  5  1  0  0  0  0
  1  5  2  0  0  0  0
  1  6  1  0  0  0  0
  4  7  1  0  0  0  0
  7  8  2  0  0  0  0
  7  9  1  0  0  0  0
 10  9  1  0  0  0  0
 10 11  1  1  0  0  0
 10 12  1  0  0  0  0
 12 13  2  0  0  0  0
 12 14  1  0  0  0  0
 15 14  1  6  0  0  0
 15 16  1  0  0  0  0
 16 17  1  0  0  0  0
 16 18  1  0  0  0  0
 15 19  1  0  0  0  0
 19 20  2  0  0  0  0
 19 21  1  0  0  0  0
 22 21  1  1  0  0  0
 22 23  1  0  0  0  0
 23 24  1  0  0  0  0
 24 25  1  0  0  0  0
 24 26  1  0  0  0  0
 22 27  1  0  0  0  0
 27 28  2  0  0  0  0
 27 29  1  0  0  0  0
 30 29  1  1  0  0  0
 30 31  1  0  0  0  0
 31 32  2  0  0  0  0
 32 33  1  0  0  0  0
 33 34  2  0  0  0  0
 33 35  1  0  0  0  0
 35 36  1  0  0  0  0
 36 37  1  0  0  0  0
 38 39  2  0  0  0  0
 40 41  1  0  0  0  0
 41 42  2  0  0  0  0
 38 42  1  0  0  0  0
 39 37  1  0  0  0  0
 37 40  2  0  0  0  0
 30 43  1  0  0  0  0
 44 43  1  1  0  0  0
 45 46  1  0  0  0  0
 47 48  1  0  0  0  0
 45 48  1  0  0  0  0
 44 46  1  0  0  0  0
 44 47  1  0  0  0  0
 46 49  2  0  0  0  0
M  END
$$$$

  Mrv1823 04162023282D          

 49 51  0  0  1  0            999 V2000
   12.8417    1.5924    0.0000 C   0  0  0  0  0  0  0  0  0  0  0  0
   13.6566    1.7207    0.0000 O   0  0  0  0  0  0  0  0  0  0  0  0
   14.0305    0.9853    0.0000 N   0  0  0  0  0  0  0  0  0  0  0  0
   13.4466    0.4025    0.0000 C   0  0  0  0  0  0  0  0  0  0  0  0
   12.7119    0.7777    0.0000 C   0  0  0  0  0  0  0  0  0  0  0  0
   12.2588    2.1763    0.0000 C   0  0  0  0  0  0  0  0  0  0  0  0
   13.5749   -0.4125    0.0000 C   0  0  0  0  0  0  0  0  0  0  0  0
   12.9333   -0.9311    0.0000 O   0  0  0  0  0  0  0  0  0  0  0  0
   14.3449   -0.7088    0.0000 N   0  0  0  0  0  0  0  0  0  0  0  0
   14.9865   -0.1902    0.0000 C   0  0  1  0  0  0  0  0  0  0  0  0
   14.8582    0.6247    0.0000 C   0  0  0  0  0  0  0  0  0  0  0  0
   15.7564   -0.4866    0.0000 C   0  0  0  0  0  0  0  0  0  0  0  0
   15.8848   -1.3015    0.0000 O   0  0  0  0  0  0  0  0  0  0  0  0
   16.3980    0.0320    0.0000 N   0  0  0  0  0  0  0  0  0  0  0  0
   17.1680   -0.2643    0.0000 C   0  0  1  0  0  0  0  0  0  0  0  0
   17.2963   -1.0793    0.0000 C   0  0  0  0  0  0  0  0  0  0  0  0
   18.0662   -1.3756    0.0000 C   0  0  0  0  0  0  0  0  0  0  0  0
   16.6547   -1.5979    0.0000 C   0  0  0  0  0  0  0  0  0  0  0  0
   17.8096    0.2543    0.0000 C   0  0  0  0  0  0  0  0  0  0  0  0
   17.6813    1.0692    0.0000 O   0  0  0  0  0  0  0  0  0  0  0  0
   18.5795   -0.0421    0.0000 N   0  0  0  0  0  0  0  0  0  0  0  0
   19.2212    0.4765    0.0000 C   0  0  1  0  0  0  0  0  0  0  0  0
   19.0928    1.2915    0.0000 C   0  0  0  0  0  0  0  0  0  0  0  0
   19.7344    1.8101    0.0000 C   0  0  0  0  0  0  0  0  0  0  0  0
   19.6061    2.6251    0.0000 C   0  0  0  0  0  0  0  0  0  0  0  0
   20.5044    1.5138    0.0000 C   0  0  0  0  0  0  0  0  0  0  0  0
   19.9911    0.1802    0.0000 C   0  0  0  0  0  0  0  0  0  0  0  0
   20.1194   -0.6348    0.0000 O   0  0  0  0  0  0  0  0  0  0  0  0
   20.6327    0.6988    0.0000 N   0  0  0  0  0  0  0  0  0  0  0  0
   21.4026    0.4025    0.0000 C   0  0  1  0  0  0  0  0  0  0  0  0
   22.0443    0.9211    0.0000 C   0  0  0  0  0  0  0  0  0  0  0  0
   22.8142    0.6247    0.0000 C   0  0  0  0  0  0  0  0  0  0  0  0
   23.4558    1.1433    0.0000 C   0  0  0  0  0  0  0  0  0  0  0  0
   23.3275    1.9583    0.0000 O   0  0  0  0  0  0  0  0  0  0  0  0
   24.2257    0.8470    0.0000 O   0  0  0  0  0  0  0  0  0  0  0  0
   24.8674    1.3656    0.0000 C   0  0  0  0  0  0  0  0  0  0  0  0
   25.6373    1.0692    0.0000 C   0  0  0  0  0  0  0  0  0  0  0  0
   27.0488    1.2915    0.0000 C   0  0  0  0  0  0  0  0  0  0  0  0
   26.2789    1.5879    0.0000 C   0  0  0  0  0  0  0  0  0  0  0  0
   25.7656    0.2543    0.0000 C   0  0  0  0  0  0  0  0  0  0  0  0
   26.5355   -0.0421    0.0000 C   0  0  0  0  0  0  0  0  0  0  0  0
   27.1772    0.4765    0.0000 C   0  0  0  0  0  0  0  0  0  0  0  0
   21.5310   -0.4125    0.0000 C   0  0  0  0  0  0  0  0  0  0  0  0
   22.3009   -0.7088    0.0000 C   0  0  1  0  0  0  0  0  0  0  0  0
   23.3375   -1.5499    0.0000 N   0  0  0  0  0  0  0  0  0  0  0  0
   22.5137   -1.5059    0.0000 C   0  0  0  0  0  0  0  0  0  0  0  0
   22.9932   -0.2601    0.0000 C   0  0  0  0  0  0  0  0  0  0  0  0
   23.6339   -0.7799    0.0000 C   0  0  0  0  0  0  0  0  0  0  0  0
   21.9939   -2.1466    0.0000 O   0  0  0  0  0  0  0  0  0  0  0  0
  1  2  1  0  0  0  0
  2  3  1  0  0  0  0
  3  4  2  0  0  0  0
  4  5  1  0  0  0  0
  1  5  2  0  0  0  0
  1  6  1  0  0  0  0
  4  7  1  0  0  0  0
  7  8  2  0  0  0  0
  7  9  1  0  0  0  0
 10  9  1  0  0  0  0
 10 11  1  1  0  0  0
 10 12  1  0  0  0  0
 12 13  2  0  0  0  0
 12 14  1  0  0  0  0
 15 14  1  6  0  0  0
 15 16  1  0  0  0  0
 16 17  1  0  0  0  0
 16 18  1  0  0  0  0
 15 19  1  0  0  0  0
 19 20  2  0  0  0  0
 19 21  1  0  0  0  0
 22 21  1  1  0  0  0
 22 23  1  0  0  0  0
 23 24  1  0  0  0  0
 24 25  1  0  0  0  0
 24 26  1  0  0  0  0
 22 27  1  0  0  0  0
 27 28  2  0  0  0  0
 27 29  1  0  0  0  0
 30 29  1  1  0  0  0
 30 31  1  0  0  0  0
 31 32  2  0  0  0  0
 32 33  1  0  0  0  0
 33 34  2  0  0  0  0
 33 35  1  0  0  0  0
 35 36  1  0  0  0  0
 36 37  1  0  0  0  0
 38 39  2  0  0  0  0
 40 41  1  0  0  0  0
 41 42  2  0  0  0  0
 38 42  1  0  0  0  0
 39 37  1  0  0  0  0
 37 40  2  0  0  0  0
 30 43  1  0  0  0  0
 44 43  1  6  0  0  0
 45 46  1  0  0  0  0
 47 48  1  0  0  0  0
 45 48  1  0  0  0  0
 44 46  1  0  0  0  0
 44 47  1  0  0  0  0
 46 49  2  0  0  0  0
M  END
$$$$

  Mrv1823 04162023282D          

 49 51  0  0  1  0            999 V2000
    7.2679   -7.1475    0.0000 C   0  0  0  0  0  0  0  0  0  0  0  0
    7.6804   -6.4330    0.0000 O   0  0  0  0  0  0  0  0  0  0  0  0
    8.4874   -6.6045    0.0000 N   0  0  0  0  0  0  0  0  0  0  0  0
    8.5737   -7.4250    0.0000 C   0  0  0  0  0  0  0  0  0  0  0  0
    7.8200   -7.7606    0.0000 C   0  0  0  0  0  0  0  0  0  0  0  0
    6.4475   -7.2337    0.0000 C   0  0  0  0  0  0  0  0  0  0  0  0
    9.2881   -7.8375    0.0000 C   0  0  0  0  0  0  0  0  0  0  0  0
    9.2881   -8.6625    0.0000 O   0  0  0  0  0  0  0  0  0  0  0  0
   10.0026   -7.4250    0.0000 N   0  0  0  0  0  0  0  0  0  0  0  0
   10.7171   -7.8375    0.0000 C   0  0  2  0  0  0  0  0  0  0  0  0
   10.7171   -8.6625    0.0000 C   0  0  0  0  0  0  0  0  0  0  0  0
   11.4315   -7.4250    0.0000 C   0  0  0  0  0  0  0  0  0  0  0  0
   11.4315   -6.6000    0.0000 O   0  0  0  0  0  0  0  0  0  0  0  0
   12.1460   -7.8375    0.0000 N   0  0  0  0  0  0  0  0  0  0  0  0
   12.8605   -7.4250    0.0000 C   0  0  2  0  0  0  0  0  0  0  0  0
   12.8605   -6.6000    0.0000 C   0  0  0  0  0  0  0  0  0  0  0  0
   13.5749   -6.1875    0.0000 C   0  0  0  0  0  0  0  0  0  0  0  0
   12.1460   -6.1875    0.0000 C   0  0  0  0  0  0  0  0  0  0  0  0
   13.5749   -7.8375    0.0000 C   0  0  0  0  0  0  0  0  0  0  0  0
   13.5749   -8.6625    0.0000 O   0  0  0  0  0  0  0  0  0  0  0  0
   14.2894   -7.4250    0.0000 N   0  0  0  0  0  0  0  0  0  0  0  0
   15.0039   -7.8375    0.0000 C   0  0  2  0  0  0  0  0  0  0  0  0
   15.0039   -8.6625    0.0000 C   0  0  0  0  0  0  0  0  0  0  0  0
   15.7184   -9.0750    0.0000 C   0  0  0  0  0  0  0  0  0  0  0  0
   16.4328   -8.6625    0.0000 C   0  0  0  0  0  0  0  0  0  0  0  0
   15.7184   -9.9000    0.0000 C   0  0  0  0  0  0  0  0  0  0  0  0
   15.7184   -7.4250    0.0000 C   0  0  0  0  0  0  0  0  0  0  0  0
   15.7184   -6.6000    0.0000 O   0  0  0  0  0  0  0  0  0  0  0  0
   16.4328   -7.8375    0.0000 N   0  0  0  0  0  0  0  0  0  0  0  0
   17.1473   -7.4250    0.0000 C   0  0  2  0  0  0  0  0  0  0  0  0
   17.1473   -6.6000    0.0000 C   0  0  0  0  0  0  0  0  0  0  0  0
   17.8618   -6.1875    0.0000 C   0  0  0  0  0  0  0  0  0  0  0  0
   18.5762   -6.6000    0.0000 C   0  0  0  0  0  0  0  0  0  0  0  0
   18.5762   -7.4250    0.0000 O   0  0  0  0  0  0  0  0  0  0  0  0
   19.2907   -6.1875    0.0000 O   0  0  0  0  0  0  0  0  0  0  0  0
   19.2907   -5.3625    0.0000 C   0  0  0  0  0  0  0  0  0  0  0  0
   20.0052   -4.9500    0.0000 C   0  0  0  0  0  0  0  0  0  0  0  0
   20.7197   -3.7125    0.0000 C   0  0  0  0  0  0  0  0  0  0  0  0
   20.0052   -4.1250    0.0000 C   0  0  0  0  0  0  0  0  0  0  0  0
   20.7197   -5.3625    0.0000 C   0  0  0  0  0  0  0  0  0  0  0  0
   21.4341   -4.9500    0.0000 C   0  0  0  0  0  0  0  0  0  0  0  0
   21.4341   -4.1250    0.0000 C   0  0  0  0  0  0  0  0  0  0  0  0
   17.8618   -7.8375    0.0000 C   0  0  0  0  0  0  0  0  0  0  0  0
   17.8618   -8.6625    0.0000 C   0  0  2  0  0  0  0  0  0  0  0  0
   18.2743   -9.9320    0.0000 N   0  0  0  0  0  0  0  0  0  0  0  0
   18.5292   -9.1474    0.0000 C   0  0  0  0  0  0  0  0  0  0  0  0
   17.1943   -9.1474    0.0000 C   0  0  0  0  0  0  0  0  0  0  0  0
   17.4493   -9.9320    0.0000 C   0  0  0  0  0  0  0  0  0  0  0  0
   19.3138   -8.8925    0.0000 O   0  0  0  0  0  0  0  0  0  0  0  0
  1  2  1  0  0  0  0
  2  3  1  0  0  0  0
  3  4  2  0  0  0  0
  4  5  1  0  0  0  0
  1  5  2  0  0  0  0
  1  6  1  0  0  0  0
  4  7  1  0  0  0  0
  7  8  2  0  0  0  0
  7  9  1  0  0  0  0
 10  9  1  0  0  0  0
 10 11  1  1  0  0  0
 10 12  1  0  0  0  0
 12 13  2  0  0  0  0
 12 14  1  0  0  0  0
 15 14  1  6  0  0  0
 15 16  1  0  0  0  0
 16 17  1  0  0  0  0
 16 18  1  0  0  0  0
 15 19  1  0  0  0  0
 19 20  2  0  0  0  0
 19 21  1  0  0  0  0
 22 21  1  1  0  0  0
 22 23  1  0  0  0  0
 23 24  1  0  0  0  0
 24 25  1  0  0  0  0
 24 26  1  0  0  0  0
 22 27  1  0  0  0  0
 27 28  2  0  0  0  0
 27 29  1  0  0  0  0
 30 29  1  6  0  0  0
 30 31  1  0  0  0  0
 31 32  2  0  0  0  0
 32 33  1  0  0  0  0
 33 34  2  0  0  0  0
 33 35  1  0  0  0  0
 35 36  1  0  0  0  0
 36 37  1  0  0  0  0
 38 39  2  0  0  0  0
 40 41  1  0  0  0  0
 41 42  2  0  0  0  0
 38 42  1  0  0  0  0
 39 37  1  0  0  0  0
 37 40  2  0  0  0  0
 30 43  1  0  0  0  0
 44 43  1  6  0  0  0
 45 46  1  0  0  0  0
 47 48  1  0  0  0  0
 45 48  1  0  0  0  0
 44 46  1  0  0  0  0
 44 47  1  0  0  0  0
 46 49  2  0  0  0  0
M  END
$$$$

  Mrv1823 04162023282D          

 49 51  0  0  1  0            999 V2000
    7.2679   -7.1475    0.0000 C   0  0  0  0  0  0  0  0  0  0  0  0
    7.6804   -6.4330    0.0000 O   0  0  0  0  0  0  0  0  0  0  0  0
    8.4874   -6.6045    0.0000 N   0  0  0  0  0  0  0  0  0  0  0  0
    8.5737   -7.4250    0.0000 C   0  0  0  0  0  0  0  0  0  0  0  0
    7.8200   -7.7606    0.0000 C   0  0  0  0  0  0  0  0  0  0  0  0
    6.4475   -7.2337    0.0000 C   0  0  0  0  0  0  0  0  0  0  0  0
    9.2881   -7.8375    0.0000 C   0  0  0  0  0  0  0  0  0  0  0  0
    9.2881   -8.6625    0.0000 O   0  0  0  0  0  0  0  0  0  0  0  0
   10.0026   -7.4250    0.0000 N   0  0  0  0  0  0  0  0  0  0  0  0
   10.7171   -7.8375    0.0000 C   0  0  2  0  0  0  0  0  0  0  0  0
   10.7171   -8.6625    0.0000 C   0  0  0  0  0  0  0  0  0  0  0  0
   11.4315   -7.4250    0.0000 C   0  0  0  0  0  0  0  0  0  0  0  0
   11.4315   -6.6000    0.0000 O   0  0  0  0  0  0  0  0  0  0  0  0
   12.1460   -7.8375    0.0000 N   0  0  0  0  0  0  0  0  0  0  0  0
   12.8605   -7.4250    0.0000 C   0  0  2  0  0  0  0  0  0  0  0  0
   12.8605   -6.6000    0.0000 C   0  0  0  0  0  0  0  0  0  0  0  0
   13.5749   -6.1875    0.0000 C   0  0  0  0  0  0  0  0  0  0  0  0
   12.1460   -6.1875    0.0000 C   0  0  0  0  0  0  0  0  0  0  0  0
   13.5749   -7.8375    0.0000 C   0  0  0  0  0  0  0  0  0  0  0  0
   13.5749   -8.6625    0.0000 O   0  0  0  0  0  0  0  0  0  0  0  0
   14.2894   -7.4250    0.0000 N   0  0  0  0  0  0  0  0  0  0  0  0
   15.0039   -7.8375    0.0000 C   0  0  2  0  0  0  0  0  0  0  0  0
   15.0039   -8.6625    0.0000 C   0  0  0  0  0  0  0  0  0  0  0  0
   15.7184   -9.0750    0.0000 C   0  0  0  0  0  0  0  0  0  0  0  0
   16.4328   -8.6625    0.0000 C   0  0  0  0  0  0  0  0  0  0  0  0
   15.7184   -9.9000    0.0000 C   0  0  0  0  0  0  0  0  0  0  0  0
   15.7184   -7.4250    0.0000 C   0  0  0  0  0  0  0  0  0  0  0  0
   15.7184   -6.6000    0.0000 O   0  0  0  0  0  0  0  0  0  0  0  0
   16.4328   -7.8375    0.0000 N   0  0  0  0  0  0  0  0  0  0  0  0
   17.1473   -7.4250    0.0000 C   0  0  2  0  0  0  0  0  0  0  0  0
   17.1473   -6.6000    0.0000 C   0  0  0  0  0  0  0  0  0  0  0  0
   17.8618   -6.1875    0.0000 C   0  0  0  0  0  0  0  0  0  0  0  0
   18.5762   -6.6000    0.0000 C   0  0  0  0  0  0  0  0  0  0  0  0
   18.5762   -7.4250    0.0000 O   0  0  0  0  0  0  0  0  0  0  0  0
   19.2907   -6.1875    0.0000 O   0  0  0  0  0  0  0  0  0  0  0  0
   19.2907   -5.3625    0.0000 C   0  0  0  0  0  0  0  0  0  0  0  0
   20.0052   -4.9500    0.0000 C   0  0  0  0  0  0  0  0  0  0  0  0
   20.7197   -3.7125    0.0000 C   0  0  0  0  0  0  0  0  0  0  0  0
   20.0052   -4.1250    0.0000 C   0  0  0  0  0  0  0  0  0  0  0  0
   20.7197   -5.3625    0.0000 C   0  0  0  0  0  0  0  0  0  0  0  0
   21.4341   -4.9500    0.0000 C   0  0  0  0  0  0  0  0  0  0  0  0
   21.4341   -4.1250    0.0000 C   0  0  0  0  0  0  0  0  0  0  0  0
   17.8618   -7.8375    0.0000 C   0  0  0  0  0  0  0  0  0  0  0  0
   17.8618   -8.6625    0.0000 C   0  0  1  0  0  0  0  0  0  0  0  0
   18.2743   -9.9320    0.0000 N   0  0  0  0  0  0  0  0  0  0  0  0
   18.5292   -9.1474    0.0000 C   0  0  0  0  0  0  0  0  0  0  0  0
   17.1943   -9.1474    0.0000 C   0  0  0  0  0  0  0  0  0  0  0  0
   17.4493   -9.9320    0.0000 C   0  0  0  0  0  0  0  0  0  0  0  0
   19.3138   -8.8925    0.0000 O   0  0  0  0  0  0  0  0  0  0  0  0
  1  2  1  0  0  0  0
  2  3  1  0  0  0  0
  3  4  2  0  0  0  0
  4  5  1  0  0  0  0
  1  5  2  0  0  0  0
  1  6  1  0  0  0  0
  4  7  1  0  0  0  0
  7  8  2  0  0  0  0
  7  9  1  0  0  0  0
 10  9  1  0  0  0  0
 10 11  1  1  0  0  0
 10 12  1  0  0  0  0
 12 13  2  0  0  0  0
 12 14  1  0  0  0  0
 15 14  1  6  0  0  0
 15 16  1  0  0  0  0
 16 17  1  0  0  0  0
 16 18  1  0  0  0  0
 15 19  1  0  0  0  0
 19 20  2  0  0  0  0
 19 21  1  0  0  0  0
 22 21  1  1  0  0  0
 22 23  1  0  0  0  0
 23 24  1  0  0  0  0
 24 25  1  0  0  0  0
 24 26  1  0  0  0  0
 22 27  1  0  0  0  0
 27 28  2  0  0  0  0
 27 29  1  0  0  0  0
 30 29  1  6  0  0  0
 30 31  1  0  0  0  0
 31 32  2  0  0  0  0
 32 33  1  0  0  0  0
 33 34  2  0  0  0  0
 33 35  1  0  0  0  0
 35 36  1  0  0  0  0
 36 37  1  0  0  0  0
 38 39  2  0  0  0  0
 40 41  1  0  0  0  0
 41 42  2  0  0  0  0
 38 42  1  0  0  0  0
 39 37  1  0  0  0  0
 37 40  2  0  0  0  0
 30 43  1  0  0  0  0
 44 43  1  1  0  0  0
 45 46  1  0  0  0  0
 47 48  1  0  0  0  0
 45 48  1  0  0  0  0
 44 46  1  0  0  0  0
 44 47  1  0  0  0  0
 46 49  2  0  0  0  0
M  END
$$$$

  Mrv1823 04162023282D          

 49 51  0  0  1  0            999 V2000
    7.2679   -7.1475    0.0000 C   0  0  0  0  0  0  0  0  0  0  0  0
    7.6804   -6.4330    0.0000 O   0  0  0  0  0  0  0  0  0  0  0  0
    8.4874   -6.6045    0.0000 N   0  0  0  0  0  0  0  0  0  0  0  0
    8.5737   -7.4250    0.0000 C   0  0  0  0  0  0  0  0  0  0  0  0
    7.8200   -7.7606    0.0000 C   0  0  0  0  0  0  0  0  0  0  0  0
    6.4475   -7.2337    0.0000 C   0  0  0  0  0  0  0  0  0  0  0  0
    9.2881   -7.8375    0.0000 C   0  0  0  0  0  0  0  0  0  0  0  0
    9.2881   -8.6625    0.0000 O   0  0  0  0  0  0  0  0  0  0  0  0
   10.0026   -7.4250    0.0000 N   0  0  0  0  0  0  0  0  0  0  0  0
   10.7171   -7.8375    0.0000 C   0  0  2  0  0  0  0  0  0  0  0  0
   10.7171   -8.6625    0.0000 C   0  0  0  0  0  0  0  0  0  0  0  0
   11.4315   -7.4250    0.0000 C   0  0  0  0  0  0  0  0  0  0  0  0
   11.4315   -6.6000    0.0000 O   0  0  0  0  0  0  0  0  0  0  0  0
   12.1460   -7.8375    0.0000 N   0  0  0  0  0  0  0  0  0  0  0  0
   12.8605   -7.4250    0.0000 C   0  0  2  0  0  0  0  0  0  0  0  0
   12.8605   -6.6000    0.0000 C   0  0  0  0  0  0  0  0  0  0  0  0
   13.5749   -6.1875    0.0000 C   0  0  0  0  0  0  0  0  0  0  0  0
   12.1460   -6.1875    0.0000 C   0  0  0  0  0  0  0  0  0  0  0  0
   13.5749   -7.8375    0.0000 C   0  0  0  0  0  0  0  0  0  0  0  0
   13.5749   -8.6625    0.0000 O   0  0  0  0  0  0  0  0  0  0  0  0
   14.2894   -7.4250    0.0000 N   0  0  0  0  0  0  0  0  0  0  0  0
   15.0039   -7.8375    0.0000 C   0  0  2  0  0  0  0  0  0  0  0  0
   15.0039   -8.6625    0.0000 C   0  0  0  0  0  0  0  0  0  0  0  0
   15.7184   -9.0750    0.0000 C   0  0  0  0  0  0  0  0  0  0  0  0
   16.4328   -8.6625    0.0000 C   0  0  0  0  0  0  0  0  0  0  0  0
   15.7184   -9.9000    0.0000 C   0  0  0  0  0  0  0  0  0  0  0  0
   15.7184   -7.4250    0.0000 C   0  0  0  0  0  0  0  0  0  0  0  0
   15.7184   -6.6000    0.0000 O   0  0  0  0  0  0  0  0  0  0  0  0
   16.4328   -7.8375    0.0000 N   0  0  0  0  0  0  0  0  0  0  0  0
   17.1473   -7.4250    0.0000 C   0  0  1  0  0  0  0  0  0  0  0  0
   17.1473   -6.6000    0.0000 C   0  0  0  0  0  0  0  0  0  0  0  0
   17.8618   -6.1875    0.0000 C   0  0  0  0  0  0  0  0  0  0  0  0
   18.5762   -6.6000    0.0000 C   0  0  0  0  0  0  0  0  0  0  0  0
   18.5762   -7.4250    0.0000 O   0  0  0  0  0  0  0  0  0  0  0  0
   19.2907   -6.1875    0.0000 O   0  0  0  0  0  0  0  0  0  0  0  0
   19.2907   -5.3625    0.0000 C   0  0  0  0  0  0  0  0  0  0  0  0
   20.0052   -4.9500    0.0000 C   0  0  0  0  0  0  0  0  0  0  0  0
   20.7197   -3.7125    0.0000 C   0  0  0  0  0  0  0  0  0  0  0  0
   20.0052   -4.1250    0.0000 C   0  0  0  0  0  0  0  0  0  0  0  0
   20.7197   -5.3625    0.0000 C   0  0  0  0  0  0  0  0  0  0  0  0
   21.4341   -4.9500    0.0000 C   0  0  0  0  0  0  0  0  0  0  0  0
   21.4341   -4.1250    0.0000 C   0  0  0  0  0  0  0  0  0  0  0  0
   17.8618   -7.8375    0.0000 C   0  0  0  0  0  0  0  0  0  0  0  0
   17.8618   -8.6625    0.0000 C   0  0  2  0  0  0  0  0  0  0  0  0
   18.2743   -9.9320    0.0000 N   0  0  0  0  0  0  0  0  0  0  0  0
   18.5292   -9.1474    0.0000 C   0  0  0  0  0  0  0  0  0  0  0  0
   17.1943   -9.1474    0.0000 C   0  0  0  0  0  0  0  0  0  0  0  0
   17.4493   -9.9320    0.0000 C   0  0  0  0  0  0  0  0  0  0  0  0
   19.3138   -8.8925    0.0000 O   0  0  0  0  0  0  0  0  0  0  0  0
  1  2  1  0  0  0  0
  2  3  1  0  0  0  0
  3  4  2  0  0  0  0
  4  5  1  0  0  0  0
  1  5  2  0  0  0  0
  1  6  1  0  0  0  0
  4  7  1  0  0  0  0
  7  8  2  0  0  0  0
  7  9  1  0  0  0  0
 10  9  1  0  0  0  0
 10 11  1  1  0  0  0
 10 12  1  0  0  0  0
 12 13  2  0  0  0  0
 12 14  1  0  0  0  0
 15 14  1  6  0  0  0
 15 16  1  0  0  0  0
 16 17  1  0  0  0  0
 16 18  1  0  0  0  0
 15 19  1  0  0  0  0
 19 20  2  0  0  0  0
 19 21  1  0  0  0  0
 22 21  1  1  0  0  0
 22 23  1  0  0  0  0
 23 24  1  0  0  0  0
 24 25  1  0  0  0  0
 24 26  1  0  0  0  0
 22 27  1  0  0  0  0
 27 28  2  0  0  0  0
 27 29  1  0  0  0  0
 30 29  1  1  0  0  0
 30 31  1  0  0  0  0
 31 32  2  0  0  0  0
 32 33  1  0  0  0  0
 33 34  2  0  0  0  0
 33 35  1  0  0  0  0
 35 36  1  0  0  0  0
 36 37  1  0  0  0  0
 38 39  2  0  0  0  0
 40 41  1  0  0  0  0
 41 42  2  0  0  0  0
 38 42  1  0  0  0  0
 39 37  1  0  0  0  0
 37 40  2  0  0  0  0
 30 43  1  0  0  0  0
 44 43  1  6  0  0  0
 45 46  1  0  0  0  0
 47 48  1  0  0  0  0
 45 48  1  0  0  0  0
 44 46  1  0  0  0  0
 44 47  1  0  0  0  0
 46 49  2  0  0  0  0
M  END
$$$$

  Mrv1823 04162023282D          

 49 51  0  0  1  0            999 V2000
    7.2679   -7.1475    0.0000 C   0  0  0  0  0  0  0  0  0  0  0  0
    7.6804   -6.4330    0.0000 O   0  0  0  0  0  0  0  0  0  0  0  0
    8.4874   -6.6045    0.0000 N   0  0  0  0  0  0  0  0  0  0  0  0
    8.5737   -7.4250    0.0000 C   0  0  0  0  0  0  0  0  0  0  0  0
    7.8200   -7.7606    0.0000 C   0  0  0  0  0  0  0  0  0  0  0  0
    6.4475   -7.2337    0.0000 C   0  0  0  0  0  0  0  0  0  0  0  0
    9.2881   -7.8375    0.0000 C   0  0  0  0  0  0  0  0  0  0  0  0
    9.2881   -8.6625    0.0000 O   0  0  0  0  0  0  0  0  0  0  0  0
   10.0026   -7.4250    0.0000 N   0  0  0  0  0  0  0  0  0  0  0  0
   10.7171   -7.8375    0.0000 C   0  0  2  0  0  0  0  0  0  0  0  0
   10.7171   -8.6625    0.0000 C   0  0  0  0  0  0  0  0  0  0  0  0
   11.4315   -7.4250    0.0000 C   0  0  0  0  0  0  0  0  0  0  0  0
   11.4315   -6.6000    0.0000 O   0  0  0  0  0  0  0  0  0  0  0  0
   12.1460   -7.8375    0.0000 N   0  0  0  0  0  0  0  0  0  0  0  0
   12.8605   -7.4250    0.0000 C   0  0  2  0  0  0  0  0  0  0  0  0
   12.8605   -6.6000    0.0000 C   0  0  0  0  0  0  0  0  0  0  0  0
   13.5749   -6.1875    0.0000 C   0  0  0  0  0  0  0  0  0  0  0  0
   12.1460   -6.1875    0.0000 C   0  0  0  0  0  0  0  0  0  0  0  0
   13.5749   -7.8375    0.0000 C   0  0  0  0  0  0  0  0  0  0  0  0
   13.5749   -8.6625    0.0000 O   0  0  0  0  0  0  0  0  0  0  0  0
   14.2894   -7.4250    0.0000 N   0  0  0  0  0  0  0  0  0  0  0  0
   15.0039   -7.8375    0.0000 C   0  0  2  0  0  0  0  0  0  0  0  0
   15.0039   -8.6625    0.0000 C   0  0  0  0  0  0  0  0  0  0  0  0
   15.7184   -9.0750    0.0000 C   0  0  0  0  0  0  0  0  0  0  0  0
   16.4328   -8.6625    0.0000 C   0  0  0  0  0  0  0  0  0  0  0  0
   15.7184   -9.9000    0.0000 C   0  0  0  0  0  0  0  0  0  0  0  0
   15.7184   -7.4250    0.0000 C   0  0  0  0  0  0  0  0  0  0  0  0
   15.7184   -6.6000    0.0000 O   0  0  0  0  0  0  0  0  0  0  0  0
   16.4328   -7.8375    0.0000 N   0  0  0  0  0  0  0  0  0  0  0  0
   17.1473   -7.4250    0.0000 C   0  0  1  0  0  0  0  0  0  0  0  0
   17.1473   -6.6000    0.0000 C   0  0  0  0  0  0  0  0  0  0  0  0
   17.8618   -6.1875    0.0000 C   0  0  0  0  0  0  0  0  0  0  0  0
   18.5762   -6.6000    0.0000 C   0  0  0  0  0  0  0  0  0  0  0  0
   18.5762   -7.4250    0.0000 O   0  0  0  0  0  0  0  0  0  0  0  0
   19.2907   -6.1875    0.0000 O   0  0  0  0  0  0  0  0  0  0  0  0
   19.2907   -5.3625    0.0000 C   0  0  0  0  0  0  0  0  0  0  0  0
   20.0052   -4.9500    0.0000 C   0  0  0  0  0  0  0  0  0  0  0  0
   20.7197   -3.7125    0.0000 C   0  0  0  0  0  0  0  0  0  0  0  0
   20.0052   -4.1250    0.0000 C   0  0  0  0  0  0  0  0  0  0  0  0
   20.7197   -5.3625    0.0000 C   0  0  0  0  0  0  0  0  0  0  0  0
   21.4341   -4.9500    0.0000 C   0  0  0  0  0  0  0  0  0  0  0  0
   21.4341   -4.1250    0.0000 C   0  0  0  0  0  0  0  0  0  0  0  0
   17.8618   -7.8375    0.0000 C   0  0  0  0  0  0  0  0  0  0  0  0
   17.8618   -8.6625    0.0000 C   0  0  1  0  0  0  0  0  0  0  0  0
   18.2743   -9.9320    0.0000 N   0  0  0  0  0  0  0  0  0  0  0  0
   18.5292   -9.1474    0.0000 C   0  0  0  0  0  0  0  0  0  0  0  0
   17.1943   -9.1474    0.0000 C   0  0  0  0  0  0  0  0  0  0  0  0
   17.4493   -9.9320    0.0000 C   0  0  0  0  0  0  0  0  0  0  0  0
   19.3138   -8.8925    0.0000 O   0  0  0  0  0  0  0  0  0  0  0  0
  1  2  1  0  0  0  0
  2  3  1  0  0  0  0
  3  4  2  0  0  0  0
  4  5  1  0  0  0  0
  1  5  2  0  0  0  0
  1  6  1  0  0  0  0
  4  7  1  0  0  0  0
  7  8  2  0  0  0  0
  7  9  1  0  0  0  0
 10  9  1  0  0  0  0
 10 11  1  1  0  0  0
 10 12  1  0  0  0  0
 12 13  2  0  0  0  0
 12 14  1  0  0  0  0
 15 14  1  6  0  0  0
 15 16  1  0  0  0  0
 16 17  1  0  0  0  0
 16 18  1  0  0  0  0
 15 19  1  0  0  0  0
 19 20  2  0  0  0  0
 19 21  1  0  0  0  0
 22 21  1  1  0  0  0
 22 23  1  0  0  0  0
 23 24  1  0  0  0  0
 24 25  1  0  0  0  0
 24 26  1  0  0  0  0
 22 27  1  0  0  0  0
 27 28  2  0  0  0  0
 27 29  1  0  0  0  0
 30 29  1  1  0  0  0
 30 31  1  0  0  0  0
 31 32  2  0  0  0  0
 32 33  1  0  0  0  0
 33 34  2  0  0  0  0
 33 35  1  0  0  0  0
 35 36  1  0  0  0  0
 36 37  1  0  0  0  0
 38 39  2  0  0  0  0
 40 41  1  0  0  0  0
 41 42  2  0  0  0  0
 38 42  1  0  0  0  0
 39 37  1  0  0  0  0
 37 40  2  0  0  0  0
 30 43  1  0  0  0  0
 44 43  1  1  0  0  0
 45 46  1  0  0  0  0
 47 48  1  0  0  0  0
 45 48  1  0  0  0  0
 44 46  1  0  0  0  0
 44 47  1  0  0  0  0
 46 49  2  0  0  0  0
M  END
$$$$

  Mrv1823 04162023282D          

 49 51  0  0  1  0            999 V2000
    7.2679   -7.1475    0.0000 C   0  0  0  0  0  0  0  0  0  0  0  0
    7.6804   -6.4330    0.0000 O   0  0  0  0  0  0  0  0  0  0  0  0
    8.4874   -6.6045    0.0000 N   0  0  0  0  0  0  0  0  0  0  0  0
    8.5737   -7.4250    0.0000 C   0  0  0  0  0  0  0  0  0  0  0  0
    7.8200   -7.7606    0.0000 C   0  0  0  0  0  0  0  0  0  0  0  0
    6.4475   -7.2337    0.0000 C   0  0  0  0  0  0  0  0  0  0  0  0
    9.2881   -7.8375    0.0000 C   0  0  0  0  0  0  0  0  0  0  0  0
    9.2881   -8.6625    0.0000 O   0  0  0  0  0  0  0  0  0  0  0  0
   10.0026   -7.4250    0.0000 N   0  0  0  0  0  0  0  0  0  0  0  0
   10.7171   -7.8375    0.0000 C   0  0  1  0  0  0  0  0  0  0  0  0
   10.7171   -8.6625    0.0000 C   0  0  0  0  0  0  0  0  0  0  0  0
   11.4315   -7.4250    0.0000 C   0  0  0  0  0  0  0  0  0  0  0  0
   11.4315   -6.6000    0.0000 O   0  0  0  0  0  0  0  0  0  0  0  0
   12.1460   -7.8375    0.0000 N   0  0  0  0  0  0  0  0  0  0  0  0
   12.8605   -7.4250    0.0000 C   0  0  2  0  0  0  0  0  0  0  0  0
   12.8605   -6.6000    0.0000 C   0  0  0  0  0  0  0  0  0  0  0  0
   13.5749   -6.1875    0.0000 C   0  0  0  0  0  0  0  0  0  0  0  0
   12.1460   -6.1875    0.0000 C   0  0  0  0  0  0  0  0  0  0  0  0
   13.5749   -7.8375    0.0000 C   0  0  0  0  0  0  0  0  0  0  0  0
   13.5749   -8.6625    0.0000 O   0  0  0  0  0  0  0  0  0  0  0  0
   14.2894   -7.4250    0.0000 N   0  0  0  0  0  0  0  0  0  0  0  0
   15.0039   -7.8375    0.0000 C   0  0  2  0  0  0  0  0  0  0  0  0
   15.0039   -8.6625    0.0000 C   0  0  0  0  0  0  0  0  0  0  0  0
   15.7184   -9.0750    0.0000 C   0  0  0  0  0  0  0  0  0  0  0  0
   16.4328   -8.6625    0.0000 C   0  0  0  0  0  0  0  0  0  0  0  0
   15.7184   -9.9000    0.0000 C   0  0  0  0  0  0  0  0  0  0  0  0
   15.7184   -7.4250    0.0000 C   0  0  0  0  0  0  0  0  0  0  0  0
   15.7184   -6.6000    0.0000 O   0  0  0  0  0  0  0  0  0  0  0  0
   16.4328   -7.8375    0.0000 N   0  0  0  0  0  0  0  0  0  0  0  0
   17.1473   -7.4250    0.0000 C   0  0  2  0  0  0  0  0  0  0  0  0
   17.1473   -6.6000    0.0000 C   0  0  0  0  0  0  0  0  0  0  0  0
   17.8618   -6.1875    0.0000 C   0  0  0  0  0  0  0  0  0  0  0  0
   18.5762   -6.6000    0.0000 C   0  0  0  0  0  0  0  0  0  0  0  0
   18.5762   -7.4250    0.0000 O   0  0  0  0  0  0  0  0  0  0  0  0
   19.2907   -6.1875    0.0000 O   0  0  0  0  0  0  0  0  0  0  0  0
   19.2907   -5.3625    0.0000 C   0  0  0  0  0  0  0  0  0  0  0  0
   20.0052   -4.9500    0.0000 C   0  0  0  0  0  0  0  0  0  0  0  0
   20.7197   -3.7125    0.0000 C   0  0  0  0  0  0  0  0  0  0  0  0
   20.0052   -4.1250    0.0000 C   0  0  0  0  0  0  0  0  0  0  0  0
   20.7197   -5.3625    0.0000 C   0  0  0  0  0  0  0  0  0  0  0  0
   21.4341   -4.9500    0.0000 C   0  0  0  0  0  0  0  0  0  0  0  0
   21.4341   -4.1250    0.0000 C   0  0  0  0  0  0  0  0  0  0  0  0
   17.8618   -7.8375    0.0000 C   0  0  0  0  0  0  0  0  0  0  0  0
   17.8618   -8.6625    0.0000 C   0  0  2  0  0  0  0  0  0  0  0  0
   18.2743   -9.9320    0.0000 N   0  0  0  0  0  0  0  0  0  0  0  0
   18.5292   -9.1474    0.0000 C   0  0  0  0  0  0  0  0  0  0  0  0
   17.1943   -9.1474    0.0000 C   0  0  0  0  0  0  0  0  0  0  0  0
   17.4493   -9.9320    0.0000 C   0  0  0  0  0  0  0  0  0  0  0  0
   19.3138   -8.8925    0.0000 O   0  0  0  0  0  0  0  0  0  0  0  0
  1  2  1  0  0  0  0
  2  3  1  0  0  0  0
  3  4  2  0  0  0  0
  4  5  1  0  0  0  0
  1  5  2  0  0  0  0
  1  6  1  0  0  0  0
  4  7  1  0  0  0  0
  7  8  2  0  0  0  0
  7  9  1  0  0  0  0
 10  9  1  0  0  0  0
 10 11  1  6  0  0  0
 10 12  1  0  0  0  0
 12 13  2  0  0  0  0
 12 14  1  0  0  0  0
 15 14  1  6  0  0  0
 15 16  1  0  0  0  0
 16 17  1  0  0  0  0
 16 18  1  0  0  0  0
 15 19  1  0  0  0  0
 19 20  2  0  0  0  0
 19 21  1  0  0  0  0
 22 21  1  1  0  0  0
 22 23  1  0  0  0  0
 23 24  1  0  0  0  0
 24 25  1  0  0  0  0
 24 26  1  0  0  0  0
 22 27  1  0  0  0  0
 27 28  2  0  0  0  0
 27 29  1  0  0  0  0
 30 29  1  6  0  0  0
 30 31  1  0  0  0  0
 31 32  2  0  0  0  0
 32 33  1  0  0  0  0
 33 34  2  0  0  0  0
 33 35  1  0  0  0  0
 35 36  1  0  0  0  0
 36 37  1  0  0  0  0
 38 39  2  0  0  0  0
 40 41  1  0  0  0  0
 41 42  2  0  0  0  0
 38 42  1  0  0  0  0
 39 37  1  0  0  0  0
 37 40  2  0  0  0  0
 30 43  1  0  0  0  0
 44 43  1  6  0  0  0
 45 46  1  0  0  0  0
 47 48  1  0  0  0  0
 45 48  1  0  0  0  0
 44 46  1  0  0  0  0
 44 47  1  0  0  0  0
 46 49  2  0  0  0  0
M  END
$$$$

  Mrv1823 04162023282D          

 49 51  0  0  1  0            999 V2000
    7.2679   -7.1475    0.0000 C   0  0  0  0  0  0  0  0  0  0  0  0
    7.6804   -6.4330    0.0000 O   0  0  0  0  0  0  0  0  0  0  0  0
    8.4874   -6.6045    0.0000 N   0  0  0  0  0  0  0  0  0  0  0  0
    8.5737   -7.4250    0.0000 C   0  0  0  0  0  0  0  0  0  0  0  0
    7.8200   -7.7606    0.0000 C   0  0  0  0  0  0  0  0  0  0  0  0
    6.4475   -7.2337    0.0000 C   0  0  0  0  0  0  0  0  0  0  0  0
    9.2881   -7.8375    0.0000 C   0  0  0  0  0  0  0  0  0  0  0  0
    9.2881   -8.6625    0.0000 O   0  0  0  0  0  0  0  0  0  0  0  0
   10.0026   -7.4250    0.0000 N   0  0  0  0  0  0  0  0  0  0  0  0
   10.7171   -7.8375    0.0000 C   0  0  1  0  0  0  0  0  0  0  0  0
   10.7171   -8.6625    0.0000 C   0  0  0  0  0  0  0  0  0  0  0  0
   11.4315   -7.4250    0.0000 C   0  0  0  0  0  0  0  0  0  0  0  0
   11.4315   -6.6000    0.0000 O   0  0  0  0  0  0  0  0  0  0  0  0
   12.1460   -7.8375    0.0000 N   0  0  0  0  0  0  0  0  0  0  0  0
   12.8605   -7.4250    0.0000 C   0  0  2  0  0  0  0  0  0  0  0  0
   12.8605   -6.6000    0.0000 C   0  0  0  0  0  0  0  0  0  0  0  0
   13.5749   -6.1875    0.0000 C   0  0  0  0  0  0  0  0  0  0  0  0
   12.1460   -6.1875    0.0000 C   0  0  0  0  0  0  0  0  0  0  0  0
   13.5749   -7.8375    0.0000 C   0  0  0  0  0  0  0  0  0  0  0  0
   13.5749   -8.6625    0.0000 O   0  0  0  0  0  0  0  0  0  0  0  0
   14.2894   -7.4250    0.0000 N   0  0  0  0  0  0  0  0  0  0  0  0
   15.0039   -7.8375    0.0000 C   0  0  2  0  0  0  0  0  0  0  0  0
   15.0039   -8.6625    0.0000 C   0  0  0  0  0  0  0  0  0  0  0  0
   15.7184   -9.0750    0.0000 C   0  0  0  0  0  0  0  0  0  0  0  0
   16.4328   -8.6625    0.0000 C   0  0  0  0  0  0  0  0  0  0  0  0
   15.7184   -9.9000    0.0000 C   0  0  0  0  0  0  0  0  0  0  0  0
   15.7184   -7.4250    0.0000 C   0  0  0  0  0  0  0  0  0  0  0  0
   15.7184   -6.6000    0.0000 O   0  0  0  0  0  0  0  0  0  0  0  0
   16.4328   -7.8375    0.0000 N   0  0  0  0  0  0  0  0  0  0  0  0
   17.1473   -7.4250    0.0000 C   0  0  2  0  0  0  0  0  0  0  0  0
   17.1473   -6.6000    0.0000 C   0  0  0  0  0  0  0  0  0  0  0  0
   17.8618   -6.1875    0.0000 C   0  0  0  0  0  0  0  0  0  0  0  0
   18.5762   -6.6000    0.0000 C   0  0  0  0  0  0  0  0  0  0  0  0
   18.5762   -7.4250    0.0000 O   0  0  0  0  0  0  0  0  0  0  0  0
   19.2907   -6.1875    0.0000 O   0  0  0  0  0  0  0  0  0  0  0  0
   19.2907   -5.3625    0.0000 C   0  0  0  0  0  0  0  0  0  0  0  0
   20.0052   -4.9500    0.0000 C   0  0  0  0  0  0  0  0  0  0  0  0
   20.7197   -3.7125    0.0000 C   0  0  0  0  0  0  0  0  0  0  0  0
   20.0052   -4.1250    0.0000 C   0  0  0  0  0  0  0  0  0  0  0  0
   20.7197   -5.3625    0.0000 C   0  0  0  0  0  0  0  0  0  0  0  0
   21.4341   -4.9500    0.0000 C   0  0  0  0  0  0  0  0  0  0  0  0
   21.4341   -4.1250    0.0000 C   0  0  0  0  0  0  0  0  0  0  0  0
   17.8618   -7.8375    0.0000 C   0  0  0  0  0  0  0  0  0  0  0  0
   17.8618   -8.6625    0.0000 C   0  0  1  0  0  0  0  0  0  0  0  0
   18.2743   -9.9320    0.0000 N   0  0  0  0  0  0  0  0  0  0  0  0
   18.5292   -9.1474    0.0000 C   0  0  0  0  0  0  0  0  0  0  0  0
   17.1943   -9.1474    0.0000 C   0  0  0  0  0  0  0  0  0  0  0  0
   17.4493   -9.9320    0.0000 C   0  0  0  0  0  0  0  0  0  0  0  0
   19.3138   -8.8925    0.0000 O   0  0  0  0  0  0  0  0  0  0  0  0
  1  2  1  0  0  0  0
  2  3  1  0  0  0  0
  3  4  2  0  0  0  0
  4  5  1  0  0  0  0
  1  5  2  0  0  0  0
  1  6  1  0  0  0  0
  4  7  1  0  0  0  0
  7  8  2  0  0  0  0
  7  9  1  0  0  0  0
 10  9  1  0  0  0  0
 10 11  1  6  0  0  0
 10 12  1  0  0  0  0
 12 13  2  0  0  0  0
 12 14  1  0  0  0  0
 15 14  1  6  0  0  0
 15 16  1  0  0  0  0
 16 17  1  0  0  0  0
 16 18  1  0  0  0  0
 15 19  1  0  0  0  0
 19 20  2  0  0  0  0
 19 21  1  0  0  0  0
 22 21  1  1  0  0  0
 22 23  1  0  0  0  0
 23 24  1  0  0  0  0
 24 25  1  0  0  0  0
 24 26  1  0  0  0  0
 22 27  1  0  0  0  0
 27 28  2  0  0  0  0
 27 29  1  0  0  0  0
 30 29  1  6  0  0  0
 30 31  1  0  0  0  0
 31 32  2  0  0  0  0
 32 33  1  0  0  0  0
 33 34  2  0  0  0  0
 33 35  1  0  0  0  0
 35 36  1  0  0  0  0
 36 37  1  0  0  0  0
 38 39  2  0  0  0  0
 40 41  1  0  0  0  0
 41 42  2  0  0  0  0
 38 42  1  0  0  0  0
 39 37  1  0  0  0  0
 37 40  2  0  0  0  0
 30 43  1  0  0  0  0
 44 43  1  1  0  0  0
 45 46  1  0  0  0  0
 47 48  1  0  0  0  0
 45 48  1  0  0  0  0
 44 46  1  0  0  0  0
 44 47  1  0  0  0  0
 46 49  2  0  0  0  0
M  END
$$$$

  Mrv1823 04162023282D          

 49 51  0  0  1  0            999 V2000
    7.2679   -7.1475    0.0000 C   0  0  0  0  0  0  0  0  0  0  0  0
    7.6804   -6.4330    0.0000 O   0  0  0  0  0  0  0  0  0  0  0  0
    8.4874   -6.6045    0.0000 N   0  0  0  0  0  0  0  0  0  0  0  0
    8.5737   -7.4250    0.0000 C   0  0  0  0  0  0  0  0  0  0  0  0
    7.8200   -7.7606    0.0000 C   0  0  0  0  0  0  0  0  0  0  0  0
    6.4475   -7.2337    0.0000 C   0  0  0  0  0  0  0  0  0  0  0  0
    9.2881   -7.8375    0.0000 C   0  0  0  0  0  0  0  0  0  0  0  0
    9.2881   -8.6625    0.0000 O   0  0  0  0  0  0  0  0  0  0  0  0
   10.0026   -7.4250    0.0000 N   0  0  0  0  0  0  0  0  0  0  0  0
   10.7171   -7.8375    0.0000 C   0  0  1  0  0  0  0  0  0  0  0  0
   10.7171   -8.6625    0.0000 C   0  0  0  0  0  0  0  0  0  0  0  0
   11.4315   -7.4250    0.0000 C   0  0  0  0  0  0  0  0  0  0  0  0
   11.4315   -6.6000    0.0000 O   0  0  0  0  0  0  0  0  0  0  0  0
   12.1460   -7.8375    0.0000 N   0  0  0  0  0  0  0  0  0  0  0  0
   12.8605   -7.4250    0.0000 C   0  0  2  0  0  0  0  0  0  0  0  0
   12.8605   -6.6000    0.0000 C   0  0  0  0  0  0  0  0  0  0  0  0
   13.5749   -6.1875    0.0000 C   0  0  0  0  0  0  0  0  0  0  0  0
   12.1460   -6.1875    0.0000 C   0  0  0  0  0  0  0  0  0  0  0  0
   13.5749   -7.8375    0.0000 C   0  0  0  0  0  0  0  0  0  0  0  0
   13.5749   -8.6625    0.0000 O   0  0  0  0  0  0  0  0  0  0  0  0
   14.2894   -7.4250    0.0000 N   0  0  0  0  0  0  0  0  0  0  0  0
   15.0039   -7.8375    0.0000 C   0  0  2  0  0  0  0  0  0  0  0  0
   15.0039   -8.6625    0.0000 C   0  0  0  0  0  0  0  0  0  0  0  0
   15.7184   -9.0750    0.0000 C   0  0  0  0  0  0  0  0  0  0  0  0
   16.4328   -8.6625    0.0000 C   0  0  0  0  0  0  0  0  0  0  0  0
   15.7184   -9.9000    0.0000 C   0  0  0  0  0  0  0  0  0  0  0  0
   15.7184   -7.4250    0.0000 C   0  0  0  0  0  0  0  0  0  0  0  0
   15.7184   -6.6000    0.0000 O   0  0  0  0  0  0  0  0  0  0  0  0
   16.4328   -7.8375    0.0000 N   0  0  0  0  0  0  0  0  0  0  0  0
   17.1473   -7.4250    0.0000 C   0  0  1  0  0  0  0  0  0  0  0  0
   17.1473   -6.6000    0.0000 C   0  0  0  0  0  0  0  0  0  0  0  0
   17.8618   -6.1875    0.0000 C   0  0  0  0  0  0  0  0  0  0  0  0
   18.5762   -6.6000    0.0000 C   0  0  0  0  0  0  0  0  0  0  0  0
   18.5762   -7.4250    0.0000 O   0  0  0  0  0  0  0  0  0  0  0  0
   19.2907   -6.1875    0.0000 O   0  0  0  0  0  0  0  0  0  0  0  0
   19.2907   -5.3625    0.0000 C   0  0  0  0  0  0  0  0  0  0  0  0
   20.0052   -4.9500    0.0000 C   0  0  0  0  0  0  0  0  0  0  0  0
   20.7197   -3.7125    0.0000 C   0  0  0  0  0  0  0  0  0  0  0  0
   20.0052   -4.1250    0.0000 C   0  0  0  0  0  0  0  0  0  0  0  0
   20.7197   -5.3625    0.0000 C   0  0  0  0  0  0  0  0  0  0  0  0
   21.4341   -4.9500    0.0000 C   0  0  0  0  0  0  0  0  0  0  0  0
   21.4341   -4.1250    0.0000 C   0  0  0  0  0  0  0  0  0  0  0  0
   17.8618   -7.8375    0.0000 C   0  0  0  0  0  0  0  0  0  0  0  0
   17.8618   -8.6625    0.0000 C   0  0  2  0  0  0  0  0  0  0  0  0
   18.2743   -9.9320    0.0000 N   0  0  0  0  0  0  0  0  0  0  0  0
   18.5292   -9.1474    0.0000 C   0  0  0  0  0  0  0  0  0  0  0  0
   17.1943   -9.1474    0.0000 C   0  0  0  0  0  0  0  0  0  0  0  0
   17.4493   -9.9320    0.0000 C   0  0  0  0  0  0  0  0  0  0  0  0
   19.3138   -8.8925    0.0000 O   0  0  0  0  0  0  0  0  0  0  0  0
  1  2  1  0  0  0  0
  2  3  1  0  0  0  0
  3  4  2  0  0  0  0
  4  5  1  0  0  0  0
  1  5  2  0  0  0  0
  1  6  1  0  0  0  0
  4  7  1  0  0  0  0
  7  8  2  0  0  0  0
  7  9  1  0  0  0  0
 10  9  1  0  0  0  0
 10 11  1  6  0  0  0
 10 12  1  0  0  0  0
 12 13  2  0  0  0  0
 12 14  1  0  0  0  0
 15 14  1  6  0  0  0
 15 16  1  0  0  0  0
 16 17  1  0  0  0  0
 16 18  1  0  0  0  0
 15 19  1  0  0  0  0
 19 20  2  0  0  0  0
 19 21  1  0  0  0  0
 22 21  1  1  0  0  0
 22 23  1  0  0  0  0
 23 24  1  0  0  0  0
 24 25  1  0  0  0  0
 24 26  1  0  0  0  0
 22 27  1  0  0  0  0
 27 28  2  0  0  0  0
 27 29  1  0  0  0  0
 30 29  1  1  0  0  0
 30 31  1  0  0  0  0
 31 32  2  0  0  0  0
 32 33  1  0  0  0  0
 33 34  2  0  0  0  0
 33 35  1  0  0  0  0
 35 36  1  0  0  0  0
 36 37  1  0  0  0  0
 38 39  2  0  0  0  0
 40 41  1  0  0  0  0
 41 42  2  0  0  0  0
 38 42  1  0  0  0  0
 39 37  1  0  0  0  0
 37 40  2  0  0  0  0
 30 43  1  0  0  0  0
 44 43  1  6  0  0  0
 45 46  1  0  0  0  0
 47 48  1  0  0  0  0
 45 48  1  0  0  0  0
 44 46  1  0  0  0  0
 44 47  1  0  0  0  0
 46 49  2  0  0  0  0
M  END
$$$$

  Mrv1823 04162023282D          

 49 51  0  0  1  0            999 V2000
    7.2679   -7.1475    0.0000 C   0  0  0  0  0  0  0  0  0  0  0  0
    7.6804   -6.4330    0.0000 O   0  0  0  0  0  0  0  0  0  0  0  0
    8.4874   -6.6045    0.0000 N   0  0  0  0  0  0  0  0  0  0  0  0
    8.5737   -7.4250    0.0000 C   0  0  0  0  0  0  0  0  0  0  0  0
    7.8200   -7.7606    0.0000 C   0  0  0  0  0  0  0  0  0  0  0  0
    6.4475   -7.2337    0.0000 C   0  0  0  0  0  0  0  0  0  0  0  0
    9.2881   -7.8375    0.0000 C   0  0  0  0  0  0  0  0  0  0  0  0
    9.2881   -8.6625    0.0000 O   0  0  0  0  0  0  0  0  0  0  0  0
   10.0026   -7.4250    0.0000 N   0  0  0  0  0  0  0  0  0  0  0  0
   10.7171   -7.8375    0.0000 C   0  0  1  0  0  0  0  0  0  0  0  0
   10.7171   -8.6625    0.0000 C   0  0  0  0  0  0  0  0  0  0  0  0
   11.4315   -7.4250    0.0000 C   0  0  0  0  0  0  0  0  0  0  0  0
   11.4315   -6.6000    0.0000 O   0  0  0  0  0  0  0  0  0  0  0  0
   12.1460   -7.8375    0.0000 N   0  0  0  0  0  0  0  0  0  0  0  0
   12.8605   -7.4250    0.0000 C   0  0  2  0  0  0  0  0  0  0  0  0
   12.8605   -6.6000    0.0000 C   0  0  0  0  0  0  0  0  0  0  0  0
   13.5749   -6.1875    0.0000 C   0  0  0  0  0  0  0  0  0  0  0  0
   12.1460   -6.1875    0.0000 C   0  0  0  0  0  0  0  0  0  0  0  0
   13.5749   -7.8375    0.0000 C   0  0  0  0  0  0  0  0  0  0  0  0
   13.5749   -8.6625    0.0000 O   0  0  0  0  0  0  0  0  0  0  0  0
   14.2894   -7.4250    0.0000 N   0  0  0  0  0  0  0  0  0  0  0  0
   15.0039   -7.8375    0.0000 C   0  0  2  0  0  0  0  0  0  0  0  0
   15.0039   -8.6625    0.0000 C   0  0  0  0  0  0  0  0  0  0  0  0
   15.7184   -9.0750    0.0000 C   0  0  0  0  0  0  0  0  0  0  0  0
   16.4328   -8.6625    0.0000 C   0  0  0  0  0  0  0  0  0  0  0  0
   15.7184   -9.9000    0.0000 C   0  0  0  0  0  0  0  0  0  0  0  0
   15.7184   -7.4250    0.0000 C   0  0  0  0  0  0  0  0  0  0  0  0
   15.7184   -6.6000    0.0000 O   0  0  0  0  0  0  0  0  0  0  0  0
   16.4328   -7.8375    0.0000 N   0  0  0  0  0  0  0  0  0  0  0  0
   17.1473   -7.4250    0.0000 C   0  0  1  0  0  0  0  0  0  0  0  0
   17.1473   -6.6000    0.0000 C   0  0  0  0  0  0  0  0  0  0  0  0
   17.8618   -6.1875    0.0000 C   0  0  0  0  0  0  0  0  0  0  0  0
   18.5762   -6.6000    0.0000 C   0  0  0  0  0  0  0  0  0  0  0  0
   18.5762   -7.4250    0.0000 O   0  0  0  0  0  0  0  0  0  0  0  0
   19.2907   -6.1875    0.0000 O   0  0  0  0  0  0  0  0  0  0  0  0
   19.2907   -5.3625    0.0000 C   0  0  0  0  0  0  0  0  0  0  0  0
   20.0052   -4.9500    0.0000 C   0  0  0  0  0  0  0  0  0  0  0  0
   20.7197   -3.7125    0.0000 C   0  0  0  0  0  0  0  0  0  0  0  0
   20.0052   -4.1250    0.0000 C   0  0  0  0  0  0  0  0  0  0  0  0
   20.7197   -5.3625    0.0000 C   0  0  0  0  0  0  0  0  0  0  0  0
   21.4341   -4.9500    0.0000 C   0  0  0  0  0  0  0  0  0  0  0  0
   21.4341   -4.1250    0.0000 C   0  0  0  0  0  0  0  0  0  0  0  0
   17.8618   -7.8375    0.0000 C   0  0  0  0  0  0  0  0  0  0  0  0
   17.8618   -8.6625    0.0000 C   0  0  1  0  0  0  0  0  0  0  0  0
   18.2743   -9.9320    0.0000 N   0  0  0  0  0  0  0  0  0  0  0  0
   18.5292   -9.1474    0.0000 C   0  0  0  0  0  0  0  0  0  0  0  0
   17.1943   -9.1474    0.0000 C   0  0  0  0  0  0  0  0  0  0  0  0
   17.4493   -9.9320    0.0000 C   0  0  0  0  0  0  0  0  0  0  0  0
   19.3138   -8.8925    0.0000 O   0  0  0  0  0  0  0  0  0  0  0  0
  1  2  1  0  0  0  0
  2  3  1  0  0  0  0
  3  4  2  0  0  0  0
  4  5  1  0  0  0  0
  1  5  2  0  0  0  0
  1  6  1  0  0  0  0
  4  7  1  0  0  0  0
  7  8  2  0  0  0  0
  7  9  1  0  0  0  0
 10  9  1  0  0  0  0
 10 11  1  6  0  0  0
 10 12  1  0  0  0  0
 12 13  2  0  0  0  0
 12 14  1  0  0  0  0
 15 14  1  6  0  0  0
 15 16  1  0  0  0  0
 16 17  1  0  0  0  0
 16 18  1  0  0  0  0
 15 19  1  0  0  0  0
 19 20  2  0  0  0  0
 19 21  1  0  0  0  0
 22 21  1  1  0  0  0
 22 23  1  0  0  0  0
 23 24  1  0  0  0  0
 24 25  1  0  0  0  0
 24 26  1  0  0  0  0
 22 27  1  0  0  0  0
 27 28  2  0  0  0  0
 27 29  1  0  0  0  0
 30 29  1  1  0  0  0
 30 31  1  0  0  0  0
 31 32  2  0  0  0  0
 32 33  1  0  0  0  0
 33 34  2  0  0  0  0
 33 35  1  0  0  0  0
 35 36  1  0  0  0  0
 36 37  1  0  0  0  0
 38 39  2  0  0  0  0
 40 41  1  0  0  0  0
 41 42  2  0  0  0  0
 38 42  1  0  0  0  0
 39 37  1  0  0  0  0
 37 40  2  0  0  0  0
 30 43  1  0  0  0  0
 44 43  1  1  0  0  0
 45 46  1  0  0  0  0
 47 48  1  0  0  0  0
 45 48  1  0  0  0  0
 44 46  1  0  0  0  0
 44 47  1  0  0  0  0
 46 49  2  0  0  0  0
M  END
$$$$

  Mrv1823 04162023282D          

 49 51  0  0  1  0            999 V2000
    7.2679   -7.1475    0.0000 C   0  0  0  0  0  0  0  0  0  0  0  0
    7.6804   -6.4330    0.0000 O   0  0  0  0  0  0  0  0  0  0  0  0
    8.4874   -6.6045    0.0000 N   0  0  0  0  0  0  0  0  0  0  0  0
    8.5737   -7.4250    0.0000 C   0  0  0  0  0  0  0  0  0  0  0  0
    7.8200   -7.7606    0.0000 C   0  0  0  0  0  0  0  0  0  0  0  0
    6.4475   -7.2337    0.0000 C   0  0  0  0  0  0  0  0  0  0  0  0
    9.2881   -7.8375    0.0000 C   0  0  0  0  0  0  0  0  0  0  0  0
    9.2881   -8.6625    0.0000 O   0  0  0  0  0  0  0  0  0  0  0  0
   10.0026   -7.4250    0.0000 N   0  0  0  0  0  0  0  0  0  0  0  0
   10.7171   -7.8375    0.0000 C   0  0  2  0  0  0  0  0  0  0  0  0
   10.7171   -8.6625    0.0000 C   0  0  0  0  0  0  0  0  0  0  0  0
   11.4315   -7.4250    0.0000 C   0  0  0  0  0  0  0  0  0  0  0  0
   11.4315   -6.6000    0.0000 O   0  0  0  0  0  0  0  0  0  0  0  0
   12.1460   -7.8375    0.0000 N   0  0  0  0  0  0  0  0  0  0  0  0
   12.8605   -7.4250    0.0000 C   0  0  2  0  0  0  0  0  0  0  0  0
   12.8605   -6.6000    0.0000 C   0  0  0  0  0  0  0  0  0  0  0  0
   13.5749   -6.1875    0.0000 C   0  0  0  0  0  0  0  0  0  0  0  0
   12.1460   -6.1875    0.0000 C   0  0  0  0  0  0  0  0  0  0  0  0
   13.5749   -7.8375    0.0000 C   0  0  0  0  0  0  0  0  0  0  0  0
   13.5749   -8.6625    0.0000 O   0  0  0  0  0  0  0  0  0  0  0  0
   14.2894   -7.4250    0.0000 N   0  0  0  0  0  0  0  0  0  0  0  0
   15.0039   -7.8375    0.0000 C   0  0  1  0  0  0  0  0  0  0  0  0
   15.0039   -8.6625    0.0000 C   0  0  0  0  0  0  0  0  0  0  0  0
   15.7184   -9.0750    0.0000 C   0  0  0  0  0  0  0  0  0  0  0  0
   16.4328   -8.6625    0.0000 C   0  0  0  0  0  0  0  0  0  0  0  0
   15.7184   -9.9000    0.0000 C   0  0  0  0  0  0  0  0  0  0  0  0
   15.7184   -7.4250    0.0000 C   0  0  0  0  0  0  0  0  0  0  0  0
   15.7184   -6.6000    0.0000 O   0  0  0  0  0  0  0  0  0  0  0  0
   16.4328   -7.8375    0.0000 N   0  0  0  0  0  0  0  0  0  0  0  0
   17.1473   -7.4250    0.0000 C   0  0  2  0  0  0  0  0  0  0  0  0
   17.1473   -6.6000    0.0000 C   0  0  0  0  0  0  0  0  0  0  0  0
   17.8618   -6.1875    0.0000 C   0  0  0  0  0  0  0  0  0  0  0  0
   18.5762   -6.6000    0.0000 C   0  0  0  0  0  0  0  0  0  0  0  0
   18.5762   -7.4250    0.0000 O   0  0  0  0  0  0  0  0  0  0  0  0
   19.2907   -6.1875    0.0000 O   0  0  0  0  0  0  0  0  0  0  0  0
   19.2907   -5.3625    0.0000 C   0  0  0  0  0  0  0  0  0  0  0  0
   20.0052   -4.9500    0.0000 C   0  0  0  0  0  0  0  0  0  0  0  0
   20.7197   -3.7125    0.0000 C   0  0  0  0  0  0  0  0  0  0  0  0
   20.0052   -4.1250    0.0000 C   0  0  0  0  0  0  0  0  0  0  0  0
   20.7197   -5.3625    0.0000 C   0  0  0  0  0  0  0  0  0  0  0  0
   21.4341   -4.9500    0.0000 C   0  0  0  0  0  0  0  0  0  0  0  0
   21.4341   -4.1250    0.0000 C   0  0  0  0  0  0  0  0  0  0  0  0
   17.8618   -7.8375    0.0000 C   0  0  0  0  0  0  0  0  0  0  0  0
   17.8618   -8.6625    0.0000 C   0  0  2  0  0  0  0  0  0  0  0  0
   18.2743   -9.9320    0.0000 N   0  0  0  0  0  0  0  0  0  0  0  0
   18.5292   -9.1474    0.0000 C   0  0  0  0  0  0  0  0  0  0  0  0
   17.1943   -9.1474    0.0000 C   0  0  0  0  0  0  0  0  0  0  0  0
   17.4493   -9.9320    0.0000 C   0  0  0  0  0  0  0  0  0  0  0  0
   19.3138   -8.8925    0.0000 O   0  0  0  0  0  0  0  0  0  0  0  0
  1  2  1  0  0  0  0
  2  3  1  0  0  0  0
  3  4  2  0  0  0  0
  4  5  1  0  0  0  0
  1  5  2  0  0  0  0
  1  6  1  0  0  0  0
  4  7  1  0  0  0  0
  7  8  2  0  0  0  0
  7  9  1  0  0  0  0
 10  9  1  0  0  0  0
 10 11  1  1  0  0  0
 10 12  1  0  0  0  0
 12 13  2  0  0  0  0
 12 14  1  0  0  0  0
 15 14  1  6  0  0  0
 15 16  1  0  0  0  0
 16 17  1  0  0  0  0
 16 18  1  0  0  0  0
 15 19  1  0  0  0  0
 19 20  2  0  0  0  0
 19 21  1  0  0  0  0
 22 21  1  6  0  0  0
 22 23  1  0  0  0  0
 23 24  1  0  0  0  0
 24 25  1  0  0  0  0
 24 26  1  0  0  0  0
 22 27  1  0  0  0  0
 27 28  2  0  0  0  0
 27 29  1  0  0  0  0
 30 29  1  6  0  0  0
 30 31  1  0  0  0  0
 31 32  2  0  0  0  0
 32 33  1  0  0  0  0
 33 34  2  0  0  0  0
 33 35  1  0  0  0  0
 35 36  1  0  0  0  0
 36 37  1  0  0  0  0
 38 39  2  0  0  0  0
 40 41  1  0  0  0  0
 41 42  2  0  0  0  0
 38 42  1  0  0  0  0
 39 37  1  0  0  0  0
 37 40  2  0  0  0  0
 30 43  1  0  0  0  0
 44 43  1  6  0  0  0
 45 46  1  0  0  0  0
 47 48  1  0  0  0  0
 45 48  1  0  0  0  0
 44 46  1  0  0  0  0
 44 47  1  0  0  0  0
 46 49  2  0  0  0  0
M  END
$$$$

  Mrv1823 04162023282D          

 49 51  0  0  1  0            999 V2000
    7.2679   -7.1475    0.0000 C   0  0  0  0  0  0  0  0  0  0  0  0
    7.6804   -6.4330    0.0000 O   0  0  0  0  0  0  0  0  0  0  0  0
    8.4874   -6.6045    0.0000 N   0  0  0  0  0  0  0  0  0  0  0  0
    8.5737   -7.4250    0.0000 C   0  0  0  0  0  0  0  0  0  0  0  0
    7.8200   -7.7606    0.0000 C   0  0  0  0  0  0  0  0  0  0  0  0
    6.4475   -7.2337    0.0000 C   0  0  0  0  0  0  0  0  0  0  0  0
    9.2881   -7.8375    0.0000 C   0  0  0  0  0  0  0  0  0  0  0  0
    9.2881   -8.6625    0.0000 O   0  0  0  0  0  0  0  0  0  0  0  0
   10.0026   -7.4250    0.0000 N   0  0  0  0  0  0  0  0  0  0  0  0
   10.7171   -7.8375    0.0000 C   0  0  2  0  0  0  0  0  0  0  0  0
   10.7171   -8.6625    0.0000 C   0  0  0  0  0  0  0  0  0  0  0  0
   11.4315   -7.4250    0.0000 C   0  0  0  0  0  0  0  0  0  0  0  0
   11.4315   -6.6000    0.0000 O   0  0  0  0  0  0  0  0  0  0  0  0
   12.1460   -7.8375    0.0000 N   0  0  0  0  0  0  0  0  0  0  0  0
   12.8605   -7.4250    0.0000 C   0  0  2  0  0  0  0  0  0  0  0  0
   12.8605   -6.6000    0.0000 C   0  0  0  0  0  0  0  0  0  0  0  0
   13.5749   -6.1875    0.0000 C   0  0  0  0  0  0  0  0  0  0  0  0
   12.1460   -6.1875    0.0000 C   0  0  0  0  0  0  0  0  0  0  0  0
   13.5749   -7.8375    0.0000 C   0  0  0  0  0  0  0  0  0  0  0  0
   13.5749   -8.6625    0.0000 O   0  0  0  0  0  0  0  0  0  0  0  0
   14.2894   -7.4250    0.0000 N   0  0  0  0  0  0  0  0  0  0  0  0
   15.0039   -7.8375    0.0000 C   0  0  1  0  0  0  0  0  0  0  0  0
   15.0039   -8.6625    0.0000 C   0  0  0  0  0  0  0  0  0  0  0  0
   15.7184   -9.0750    0.0000 C   0  0  0  0  0  0  0  0  0  0  0  0
   16.4328   -8.6625    0.0000 C   0  0  0  0  0  0  0  0  0  0  0  0
   15.7184   -9.9000    0.0000 C   0  0  0  0  0  0  0  0  0  0  0  0
   15.7184   -7.4250    0.0000 C   0  0  0  0  0  0  0  0  0  0  0  0
   15.7184   -6.6000    0.0000 O   0  0  0  0  0  0  0  0  0  0  0  0
   16.4328   -7.8375    0.0000 N   0  0  0  0  0  0  0  0  0  0  0  0
   17.1473   -7.4250    0.0000 C   0  0  2  0  0  0  0  0  0  0  0  0
   17.1473   -6.6000    0.0000 C   0  0  0  0  0  0  0  0  0  0  0  0
   17.8618   -6.1875    0.0000 C   0  0  0  0  0  0  0  0  0  0  0  0
   18.5762   -6.6000    0.0000 C   0  0  0  0  0  0  0  0  0  0  0  0
   18.5762   -7.4250    0.0000 O   0  0  0  0  0  0  0  0  0  0  0  0
   19.2907   -6.1875    0.0000 O   0  0  0  0  0  0  0  0  0  0  0  0
   19.2907   -5.3625    0.0000 C   0  0  0  0  0  0  0  0  0  0  0  0
   20.0052   -4.9500    0.0000 C   0  0  0  0  0  0  0  0  0  0  0  0
   20.7197   -3.7125    0.0000 C   0  0  0  0  0  0  0  0  0  0  0  0
   20.0052   -4.1250    0.0000 C   0  0  0  0  0  0  0  0  0  0  0  0
   20.7197   -5.3625    0.0000 C   0  0  0  0  0  0  0  0  0  0  0  0
   21.4341   -4.9500    0.0000 C   0  0  0  0  0  0  0  0  0  0  0  0
   21.4341   -4.1250    0.0000 C   0  0  0  0  0  0  0  0  0  0  0  0
   17.8618   -7.8375    0.0000 C   0  0  0  0  0  0  0  0  0  0  0  0
   17.8618   -8.6625    0.0000 C   0  0  1  0  0  0  0  0  0  0  0  0
   18.2743   -9.9320    0.0000 N   0  0  0  0  0  0  0  0  0  0  0  0
   18.5292   -9.1474    0.0000 C   0  0  0  0  0  0  0  0  0  0  0  0
   17.1943   -9.1474    0.0000 C   0  0  0  0  0  0  0  0  0  0  0  0
   17.4493   -9.9320    0.0000 C   0  0  0  0  0  0  0  0  0  0  0  0
   19.3138   -8.8925    0.0000 O   0  0  0  0  0  0  0  0  0  0  0  0
  1  2  1  0  0  0  0
  2  3  1  0  0  0  0
  3  4  2  0  0  0  0
  4  5  1  0  0  0  0
  1  5  2  0  0  0  0
  1  6  1  0  0  0  0
  4  7  1  0  0  0  0
  7  8  2  0  0  0  0
  7  9  1  0  0  0  0
 10  9  1  0  0  0  0
 10 11  1  1  0  0  0
 10 12  1  0  0  0  0
 12 13  2  0  0  0  0
 12 14  1  0  0  0  0
 15 14  1  6  0  0  0
 15 16  1  0  0  0  0
 16 17  1  0  0  0  0
 16 18  1  0  0  0  0
 15 19  1  0  0  0  0
 19 20  2  0  0  0  0
 19 21  1  0  0  0  0
 22 21  1  6  0  0  0
 22 23  1  0  0  0  0
 23 24  1  0  0  0  0
 24 25  1  0  0  0  0
 24 26  1  0  0  0  0
 22 27  1  0  0  0  0
 27 28  2  0  0  0  0
 27 29  1  0  0  0  0
 30 29  1  6  0  0  0
 30 31  1  0  0  0  0
 31 32  2  0  0  0  0
 32 33  1  0  0  0  0
 33 34  2  0  0  0  0
 33 35  1  0  0  0  0
 35 36  1  0  0  0  0
 36 37  1  0  0  0  0
 38 39  2  0  0  0  0
 40 41  1  0  0  0  0
 41 42  2  0  0  0  0
 38 42  1  0  0  0  0
 39 37  1  0  0  0  0
 37 40  2  0  0  0  0
 30 43  1  0  0  0  0
 44 43  1  1  0  0  0
 45 46  1  0  0  0  0
 47 48  1  0  0  0  0
 45 48  1  0  0  0  0
 44 46  1  0  0  0  0
 44 47  1  0  0  0  0
 46 49  2  0  0  0  0
M  END
$$$$

  Mrv1823 04162023282D          

 49 51  0  0  1  0            999 V2000
    7.2679   -7.1475    0.0000 C   0  0  0  0  0  0  0  0  0  0  0  0
    7.6804   -6.4330    0.0000 O   0  0  0  0  0  0  0  0  0  0  0  0
    8.4874   -6.6045    0.0000 N   0  0  0  0  0  0  0  0  0  0  0  0
    8.5737   -7.4250    0.0000 C   0  0  0  0  0  0  0  0  0  0  0  0
    7.8200   -7.7606    0.0000 C   0  0  0  0  0  0  0  0  0  0  0  0
    6.4475   -7.2337    0.0000 C   0  0  0  0  0  0  0  0  0  0  0  0
    9.2881   -7.8375    0.0000 C   0  0  0  0  0  0  0  0  0  0  0  0
    9.2881   -8.6625    0.0000 O   0  0  0  0  0  0  0  0  0  0  0  0
   10.0026   -7.4250    0.0000 N   0  0  0  0  0  0  0  0  0  0  0  0
   10.7171   -7.8375    0.0000 C   0  0  2  0  0  0  0  0  0  0  0  0
   10.7171   -8.6625    0.0000 C   0  0  0  0  0  0  0  0  0  0  0  0
   11.4315   -7.4250    0.0000 C   0  0  0  0  0  0  0  0  0  0  0  0
   11.4315   -6.6000    0.0000 O   0  0  0  0  0  0  0  0  0  0  0  0
   12.1460   -7.8375    0.0000 N   0  0  0  0  0  0  0  0  0  0  0  0
   12.8605   -7.4250    0.0000 C   0  0  2  0  0  0  0  0  0  0  0  0
   12.8605   -6.6000    0.0000 C   0  0  0  0  0  0  0  0  0  0  0  0
   13.5749   -6.1875    0.0000 C   0  0  0  0  0  0  0  0  0  0  0  0
   12.1460   -6.1875    0.0000 C   0  0  0  0  0  0  0  0  0  0  0  0
   13.5749   -7.8375    0.0000 C   0  0  0  0  0  0  0  0  0  0  0  0
   13.5749   -8.6625    0.0000 O   0  0  0  0  0  0  0  0  0  0  0  0
   14.2894   -7.4250    0.0000 N   0  0  0  0  0  0  0  0  0  0  0  0
   15.0039   -7.8375    0.0000 C   0  0  1  0  0  0  0  0  0  0  0  0
   15.0039   -8.6625    0.0000 C   0  0  0  0  0  0  0  0  0  0  0  0
   15.7184   -9.0750    0.0000 C   0  0  0  0  0  0  0  0  0  0  0  0
   16.4328   -8.6625    0.0000 C   0  0  0  0  0  0  0  0  0  0  0  0
   15.7184   -9.9000    0.0000 C   0  0  0  0  0  0  0  0  0  0  0  0
   15.7184   -7.4250    0.0000 C   0  0  0  0  0  0  0  0  0  0  0  0
   15.7184   -6.6000    0.0000 O   0  0  0  0  0  0  0  0  0  0  0  0
   16.4328   -7.8375    0.0000 N   0  0  0  0  0  0  0  0  0  0  0  0
   17.1473   -7.4250    0.0000 C   0  0  1  0  0  0  0  0  0  0  0  0
   17.1473   -6.6000    0.0000 C   0  0  0  0  0  0  0  0  0  0  0  0
   17.8618   -6.1875    0.0000 C   0  0  0  0  0  0  0  0  0  0  0  0
   18.5762   -6.6000    0.0000 C   0  0  0  0  0  0  0  0  0  0  0  0
   18.5762   -7.4250    0.0000 O   0  0  0  0  0  0  0  0  0  0  0  0
   19.2907   -6.1875    0.0000 O   0  0  0  0  0  0  0  0  0  0  0  0
   19.2907   -5.3625    0.0000 C   0  0  0  0  0  0  0  0  0  0  0  0
   20.0052   -4.9500    0.0000 C   0  0  0  0  0  0  0  0  0  0  0  0
   20.7197   -3.7125    0.0000 C   0  0  0  0  0  0  0  0  0  0  0  0
   20.0052   -4.1250    0.0000 C   0  0  0  0  0  0  0  0  0  0  0  0
   20.7197   -5.3625    0.0000 C   0  0  0  0  0  0  0  0  0  0  0  0
   21.4341   -4.9500    0.0000 C   0  0  0  0  0  0  0  0  0  0  0  0
   21.4341   -4.1250    0.0000 C   0  0  0  0  0  0  0  0  0  0  0  0
   17.8618   -7.8375    0.0000 C   0  0  0  0  0  0  0  0  0  0  0  0
   17.8618   -8.6625    0.0000 C   0  0  2  0  0  0  0  0  0  0  0  0
   18.2743   -9.9320    0.0000 N   0  0  0  0  0  0  0  0  0  0  0  0
   18.5292   -9.1474    0.0000 C   0  0  0  0  0  0  0  0  0  0  0  0
   17.1943   -9.1474    0.0000 C   0  0  0  0  0  0  0  0  0  0  0  0
   17.4493   -9.9320    0.0000 C   0  0  0  0  0  0  0  0  0  0  0  0
   19.3138   -8.8925    0.0000 O   0  0  0  0  0  0  0  0  0  0  0  0
  1  2  1  0  0  0  0
  2  3  1  0  0  0  0
  3  4  2  0  0  0  0
  4  5  1  0  0  0  0
  1  5  2  0  0  0  0
  1  6  1  0  0  0  0
  4  7  1  0  0  0  0
  7  8  2  0  0  0  0
  7  9  1  0  0  0  0
 10  9  1  0  0  0  0
 10 11  1  1  0  0  0
 10 12  1  0  0  0  0
 12 13  2  0  0  0  0
 12 14  1  0  0  0  0
 15 14  1  6  0  0  0
 15 16  1  0  0  0  0
 16 17  1  0  0  0  0
 16 18  1  0  0  0  0
 15 19  1  0  0  0  0
 19 20  2  0  0  0  0
 19 21  1  0  0  0  0
 22 21  1  6  0  0  0
 22 23  1  0  0  0  0
 23 24  1  0  0  0  0
 24 25  1  0  0  0  0
 24 26  1  0  0  0  0
 22 27  1  0  0  0  0
 27 28  2  0  0  0  0
 27 29  1  0  0  0  0
 30 29  1  1  0  0  0
 30 31  1  0  0  0  0
 31 32  2  0  0  0  0
 32 33  1  0  0  0  0
 33 34  2  0  0  0  0
 33 35  1  0  0  0  0
 35 36  1  0  0  0  0
 36 37  1  0  0  0  0
 38 39  2  0  0  0  0
 40 41  1  0  0  0  0
 41 42  2  0  0  0  0
 38 42  1  0  0  0  0
 39 37  1  0  0  0  0
 37 40  2  0  0  0  0
 30 43  1  0  0  0  0
 44 43  1  6  0  0  0
 45 46  1  0  0  0  0
 47 48  1  0  0  0  0
 45 48  1  0  0  0  0
 44 46  1  0  0  0  0
 44 47  1  0  0  0  0
 46 49  2  0  0  0  0
M  END
$$$$

  Mrv1823 04162023282D          

 49 51  0  0  1  0            999 V2000
    7.2679   -7.1475    0.0000 C   0  0  0  0  0  0  0  0  0  0  0  0
    7.6804   -6.4330    0.0000 O   0  0  0  0  0  0  0  0  0  0  0  0
    8.4874   -6.6045    0.0000 N   0  0  0  0  0  0  0  0  0  0  0  0
    8.5737   -7.4250    0.0000 C   0  0  0  0  0  0  0  0  0  0  0  0
    7.8200   -7.7606    0.0000 C   0  0  0  0  0  0  0  0  0  0  0  0
    6.4475   -7.2337    0.0000 C   0  0  0  0  0  0  0  0  0  0  0  0
    9.2881   -7.8375    0.0000 C   0  0  0  0  0  0  0  0  0  0  0  0
    9.2881   -8.6625    0.0000 O   0  0  0  0  0  0  0  0  0  0  0  0
   10.0026   -7.4250    0.0000 N   0  0  0  0  0  0  0  0  0  0  0  0
   10.7171   -7.8375    0.0000 C   0  0  2  0  0  0  0  0  0  0  0  0
   10.7171   -8.6625    0.0000 C   0  0  0  0  0  0  0  0  0  0  0  0
   11.4315   -7.4250    0.0000 C   0  0  0  0  0  0  0  0  0  0  0  0
   11.4315   -6.6000    0.0000 O   0  0  0  0  0  0  0  0  0  0  0  0
   12.1460   -7.8375    0.0000 N   0  0  0  0  0  0  0  0  0  0  0  0
   12.8605   -7.4250    0.0000 C   0  0  2  0  0  0  0  0  0  0  0  0
   12.8605   -6.6000    0.0000 C   0  0  0  0  0  0  0  0  0  0  0  0
   13.5749   -6.1875    0.0000 C   0  0  0  0  0  0  0  0  0  0  0  0
   12.1460   -6.1875    0.0000 C   0  0  0  0  0  0  0  0  0  0  0  0
   13.5749   -7.8375    0.0000 C   0  0  0  0  0  0  0  0  0  0  0  0
   13.5749   -8.6625    0.0000 O   0  0  0  0  0  0  0  0  0  0  0  0
   14.2894   -7.4250    0.0000 N   0  0  0  0  0  0  0  0  0  0  0  0
   15.0039   -7.8375    0.0000 C   0  0  1  0  0  0  0  0  0  0  0  0
   15.0039   -8.6625    0.0000 C   0  0  0  0  0  0  0  0  0  0  0  0
   15.7184   -9.0750    0.0000 C   0  0  0  0  0  0  0  0  0  0  0  0
   16.4328   -8.6625    0.0000 C   0  0  0  0  0  0  0  0  0  0  0  0
   15.7184   -9.9000    0.0000 C   0  0  0  0  0  0  0  0  0  0  0  0
   15.7184   -7.4250    0.0000 C   0  0  0  0  0  0  0  0  0  0  0  0
   15.7184   -6.6000    0.0000 O   0  0  0  0  0  0  0  0  0  0  0  0
   16.4328   -7.8375    0.0000 N   0  0  0  0  0  0  0  0  0  0  0  0
   17.1473   -7.4250    0.0000 C   0  0  1  0  0  0  0  0  0  0  0  0
   17.1473   -6.6000    0.0000 C   0  0  0  0  0  0  0  0  0  0  0  0
   17.8618   -6.1875    0.0000 C   0  0  0  0  0  0  0  0  0  0  0  0
   18.5762   -6.6000    0.0000 C   0  0  0  0  0  0  0  0  0  0  0  0
   18.5762   -7.4250    0.0000 O   0  0  0  0  0  0  0  0  0  0  0  0
   19.2907   -6.1875    0.0000 O   0  0  0  0  0  0  0  0  0  0  0  0
   19.2907   -5.3625    0.0000 C   0  0  0  0  0  0  0  0  0  0  0  0
   20.0052   -4.9500    0.0000 C   0  0  0  0  0  0  0  0  0  0  0  0
   20.7197   -3.7125    0.0000 C   0  0  0  0  0  0  0  0  0  0  0  0
   20.0052   -4.1250    0.0000 C   0  0  0  0  0  0  0  0  0  0  0  0
   20.7197   -5.3625    0.0000 C   0  0  0  0  0  0  0  0  0  0  0  0
   21.4341   -4.9500    0.0000 C   0  0  0  0  0  0  0  0  0  0  0  0
   21.4341   -4.1250    0.0000 C   0  0  0  0  0  0  0  0  0  0  0  0
   17.8618   -7.8375    0.0000 C   0  0  0  0  0  0  0  0  0  0  0  0
   17.8618   -8.6625    0.0000 C   0  0  1  0  0  0  0  0  0  0  0  0
   18.2743   -9.9320    0.0000 N   0  0  0  0  0  0  0  0  0  0  0  0
   18.5292   -9.1474    0.0000 C   0  0  0  0  0  0  0  0  0  0  0  0
   17.1943   -9.1474    0.0000 C   0  0  0  0  0  0  0  0  0  0  0  0
   17.4493   -9.9320    0.0000 C   0  0  0  0  0  0  0  0  0  0  0  0
   19.3138   -8.8925    0.0000 O   0  0  0  0  0  0  0  0  0  0  0  0
  1  2  1  0  0  0  0
  2  3  1  0  0  0  0
  3  4  2  0  0  0  0
  4  5  1  0  0  0  0
  1  5  2  0  0  0  0
  1  6  1  0  0  0  0
  4  7  1  0  0  0  0
  7  8  2  0  0  0  0
  7  9  1  0  0  0  0
 10  9  1  0  0  0  0
 10 11  1  1  0  0  0
 10 12  1  0  0  0  0
 12 13  2  0  0  0  0
 12 14  1  0  0  0  0
 15 14  1  6  0  0  0
 15 16  1  0  0  0  0
 16 17  1  0  0  0  0
 16 18  1  0  0  0  0
 15 19  1  0  0  0  0
 19 20  2  0  0  0  0
 19 21  1  0  0  0  0
 22 21  1  6  0  0  0
 22 23  1  0  0  0  0
 23 24  1  0  0  0  0
 24 25  1  0  0  0  0
 24 26  1  0  0  0  0
 22 27  1  0  0  0  0
 27 28  2  0  0  0  0
 27 29  1  0  0  0  0
 30 29  1  1  0  0  0
 30 31  1  0  0  0  0
 31 32  2  0  0  0  0
 32 33  1  0  0  0  0
 33 34  2  0  0  0  0
 33 35  1  0  0  0  0
 35 36  1  0  0  0  0
 36 37  1  0  0  0  0
 38 39  2  0  0  0  0
 40 41  1  0  0  0  0
 41 42  2  0  0  0  0
 38 42  1  0  0  0  0
 39 37  1  0  0  0  0
 37 40  2  0  0  0  0
 30 43  1  0  0  0  0
 44 43  1  1  0  0  0
 45 46  1  0  0  0  0
 47 48  1  0  0  0  0
 45 48  1  0  0  0  0
 44 46  1  0  0  0  0
 44 47  1  0  0  0  0
 46 49  2  0  0  0  0
M  END
$$$$

  Mrv1823 04162023282D          

 49 51  0  0  1  0            999 V2000
    7.2679   -7.1475    0.0000 C   0  0  0  0  0  0  0  0  0  0  0  0
    7.6804   -6.4330    0.0000 O   0  0  0  0  0  0  0  0  0  0  0  0
    8.4874   -6.6045    0.0000 N   0  0  0  0  0  0  0  0  0  0  0  0
    8.5737   -7.4250    0.0000 C   0  0  0  0  0  0  0  0  0  0  0  0
    7.8200   -7.7606    0.0000 C   0  0  0  0  0  0  0  0  0  0  0  0
    6.4475   -7.2337    0.0000 C   0  0  0  0  0  0  0  0  0  0  0  0
    9.2881   -7.8375    0.0000 C   0  0  0  0  0  0  0  0  0  0  0  0
    9.2881   -8.6625    0.0000 O   0  0  0  0  0  0  0  0  0  0  0  0
   10.0026   -7.4250    0.0000 N   0  0  0  0  0  0  0  0  0  0  0  0
   10.7171   -7.8375    0.0000 C   0  0  1  0  0  0  0  0  0  0  0  0
   10.7171   -8.6625    0.0000 C   0  0  0  0  0  0  0  0  0  0  0  0
   11.4315   -7.4250    0.0000 C   0  0  0  0  0  0  0  0  0  0  0  0
   11.4315   -6.6000    0.0000 O   0  0  0  0  0  0  0  0  0  0  0  0
   12.1460   -7.8375    0.0000 N   0  0  0  0  0  0  0  0  0  0  0  0
   12.8605   -7.4250    0.0000 C   0  0  2  0  0  0  0  0  0  0  0  0
   12.8605   -6.6000    0.0000 C   0  0  0  0  0  0  0  0  0  0  0  0
   13.5749   -6.1875    0.0000 C   0  0  0  0  0  0  0  0  0  0  0  0
   12.1460   -6.1875    0.0000 C   0  0  0  0  0  0  0  0  0  0  0  0
   13.5749   -7.8375    0.0000 C   0  0  0  0  0  0  0  0  0  0  0  0
   13.5749   -8.6625    0.0000 O   0  0  0  0  0  0  0  0  0  0  0  0
   14.2894   -7.4250    0.0000 N   0  0  0  0  0  0  0  0  0  0  0  0
   15.0039   -7.8375    0.0000 C   0  0  1  0  0  0  0  0  0  0  0  0
   15.0039   -8.6625    0.0000 C   0  0  0  0  0  0  0  0  0  0  0  0
   15.7184   -9.0750    0.0000 C   0  0  0  0  0  0  0  0  0  0  0  0
   16.4328   -8.6625    0.0000 C   0  0  0  0  0  0  0  0  0  0  0  0
   15.7184   -9.9000    0.0000 C   0  0  0  0  0  0  0  0  0  0  0  0
   15.7184   -7.4250    0.0000 C   0  0  0  0  0  0  0  0  0  0  0  0
   15.7184   -6.6000    0.0000 O   0  0  0  0  0  0  0  0  0  0  0  0
   16.4328   -7.8375    0.0000 N   0  0  0  0  0  0  0  0  0  0  0  0
   17.1473   -7.4250    0.0000 C   0  0  2  0  0  0  0  0  0  0  0  0
   17.1473   -6.6000    0.0000 C   0  0  0  0  0  0  0  0  0  0  0  0
   17.8618   -6.1875    0.0000 C   0  0  0  0  0  0  0  0  0  0  0  0
   18.5762   -6.6000    0.0000 C   0  0  0  0  0  0  0  0  0  0  0  0
   18.5762   -7.4250    0.0000 O   0  0  0  0  0  0  0  0  0  0  0  0
   19.2907   -6.1875    0.0000 O   0  0  0  0  0  0  0  0  0  0  0  0
   19.2907   -5.3625    0.0000 C   0  0  0  0  0  0  0  0  0  0  0  0
   20.0052   -4.9500    0.0000 C   0  0  0  0  0  0  0  0  0  0  0  0
   20.7197   -3.7125    0.0000 C   0  0  0  0  0  0  0  0  0  0  0  0
   20.0052   -4.1250    0.0000 C   0  0  0  0  0  0  0  0  0  0  0  0
   20.7197   -5.3625    0.0000 C   0  0  0  0  0  0  0  0  0  0  0  0
   21.4341   -4.9500    0.0000 C   0  0  0  0  0  0  0  0  0  0  0  0
   21.4341   -4.1250    0.0000 C   0  0  0  0  0  0  0  0  0  0  0  0
   17.8618   -7.8375    0.0000 C   0  0  0  0  0  0  0  0  0  0  0  0
   17.8618   -8.6625    0.0000 C   0  0  2  0  0  0  0  0  0  0  0  0
   18.2743   -9.9320    0.0000 N   0  0  0  0  0  0  0  0  0  0  0  0
   18.5292   -9.1474    0.0000 C   0  0  0  0  0  0  0  0  0  0  0  0
   17.1943   -9.1474    0.0000 C   0  0  0  0  0  0  0  0  0  0  0  0
   17.4493   -9.9320    0.0000 C   0  0  0  0  0  0  0  0  0  0  0  0
   19.3138   -8.8925    0.0000 O   0  0  0  0  0  0  0  0  0  0  0  0
  1  2  1  0  0  0  0
  2  3  1  0  0  0  0
  3  4  2  0  0  0  0
  4  5  1  0  0  0  0
  1  5  2  0  0  0  0
  1  6  1  0  0  0  0
  4  7  1  0  0  0  0
  7  8  2  0  0  0  0
  7  9  1  0  0  0  0
 10  9  1  0  0  0  0
 10 11  1  6  0  0  0
 10 12  1  0  0  0  0
 12 13  2  0  0  0  0
 12 14  1  0  0  0  0
 15 14  1  6  0  0  0
 15 16  1  0  0  0  0
 16 17  1  0  0  0  0
 16 18  1  0  0  0  0
 15 19  1  0  0  0  0
 19 20  2  0  0  0  0
 19 21  1  0  0  0  0
 22 21  1  6  0  0  0
 22 23  1  0  0  0  0
 23 24  1  0  0  0  0
 24 25  1  0  0  0  0
 24 26  1  0  0  0  0
 22 27  1  0  0  0  0
 27 28  2  0  0  0  0
 27 29  1  0  0  0  0
 30 29  1  6  0  0  0
 30 31  1  0  0  0  0
 31 32  2  0  0  0  0
 32 33  1  0  0  0  0
 33 34  2  0  0  0  0
 33 35  1  0  0  0  0
 35 36  1  0  0  0  0
 36 37  1  0  0  0  0
 38 39  2  0  0  0  0
 40 41  1  0  0  0  0
 41 42  2  0  0  0  0
 38 42  1  0  0  0  0
 39 37  1  0  0  0  0
 37 40  2  0  0  0  0
 30 43  1  0  0  0  0
 44 43  1  6  0  0  0
 45 46  1  0  0  0  0
 47 48  1  0  0  0  0
 45 48  1  0  0  0  0
 44 46  1  0  0  0  0
 44 47  1  0  0  0  0
 46 49  2  0  0  0  0
M  END
$$$$

  Mrv1823 04162023282D          

 49 51  0  0  1  0            999 V2000
    7.2679   -7.1475    0.0000 C   0  0  0  0  0  0  0  0  0  0  0  0
    7.6804   -6.4330    0.0000 O   0  0  0  0  0  0  0  0  0  0  0  0
    8.4874   -6.6045    0.0000 N   0  0  0  0  0  0  0  0  0  0  0  0
    8.5737   -7.4250    0.0000 C   0  0  0  0  0  0  0  0  0  0  0  0
    7.8200   -7.7606    0.0000 C   0  0  0  0  0  0  0  0  0  0  0  0
    6.4475   -7.2337    0.0000 C   0  0  0  0  0  0  0  0  0  0  0  0
    9.2881   -7.8375    0.0000 C   0  0  0  0  0  0  0  0  0  0  0  0
    9.2881   -8.6625    0.0000 O   0  0  0  0  0  0  0  0  0  0  0  0
   10.0026   -7.4250    0.0000 N   0  0  0  0  0  0  0  0  0  0  0  0
   10.7171   -7.8375    0.0000 C   0  0  1  0  0  0  0  0  0  0  0  0
   10.7171   -8.6625    0.0000 C   0  0  0  0  0  0  0  0  0  0  0  0
   11.4315   -7.4250    0.0000 C   0  0  0  0  0  0  0  0  0  0  0  0
   11.4315   -6.6000    0.0000 O   0  0  0  0  0  0  0  0  0  0  0  0
   12.1460   -7.8375    0.0000 N   0  0  0  0  0  0  0  0  0  0  0  0
   12.8605   -7.4250    0.0000 C   0  0  2  0  0  0  0  0  0  0  0  0
   12.8605   -6.6000    0.0000 C   0  0  0  0  0  0  0  0  0  0  0  0
   13.5749   -6.1875    0.0000 C   0  0  0  0  0  0  0  0  0  0  0  0
   12.1460   -6.1875    0.0000 C   0  0  0  0  0  0  0  0  0  0  0  0
   13.5749   -7.8375    0.0000 C   0  0  0  0  0  0  0  0  0  0  0  0
   13.5749   -8.6625    0.0000 O   0  0  0  0  0  0  0  0  0  0  0  0
   14.2894   -7.4250    0.0000 N   0  0  0  0  0  0  0  0  0  0  0  0
   15.0039   -7.8375    0.0000 C   0  0  1  0  0  0  0  0  0  0  0  0
   15.0039   -8.6625    0.0000 C   0  0  0  0  0  0  0  0  0  0  0  0
   15.7184   -9.0750    0.0000 C   0  0  0  0  0  0  0  0  0  0  0  0
   16.4328   -8.6625    0.0000 C   0  0  0  0  0  0  0  0  0  0  0  0
   15.7184   -9.9000    0.0000 C   0  0  0  0  0  0  0  0  0  0  0  0
   15.7184   -7.4250    0.0000 C   0  0  0  0  0  0  0  0  0  0  0  0
   15.7184   -6.6000    0.0000 O   0  0  0  0  0  0  0  0  0  0  0  0
   16.4328   -7.8375    0.0000 N   0  0  0  0  0  0  0  0  0  0  0  0
   17.1473   -7.4250    0.0000 C   0  0  2  0  0  0  0  0  0  0  0  0
   17.1473   -6.6000    0.0000 C   0  0  0  0  0  0  0  0  0  0  0  0
   17.8618   -6.1875    0.0000 C   0  0  0  0  0  0  0  0  0  0  0  0
   18.5762   -6.6000    0.0000 C   0  0  0  0  0  0  0  0  0  0  0  0
   18.5762   -7.4250    0.0000 O   0  0  0  0  0  0  0  0  0  0  0  0
   19.2907   -6.1875    0.0000 O   0  0  0  0  0  0  0  0  0  0  0  0
   19.2907   -5.3625    0.0000 C   0  0  0  0  0  0  0  0  0  0  0  0
   20.0052   -4.9500    0.0000 C   0  0  0  0  0  0  0  0  0  0  0  0
   20.7197   -3.7125    0.0000 C   0  0  0  0  0  0  0  0  0  0  0  0
   20.0052   -4.1250    0.0000 C   0  0  0  0  0  0  0  0  0  0  0  0
   20.7197   -5.3625    0.0000 C   0  0  0  0  0  0  0  0  0  0  0  0
   21.4341   -4.9500    0.0000 C   0  0  0  0  0  0  0  0  0  0  0  0
   21.4341   -4.1250    0.0000 C   0  0  0  0  0  0  0  0  0  0  0  0
   17.8618   -7.8375    0.0000 C   0  0  0  0  0  0  0  0  0  0  0  0
   17.8618   -8.6625    0.0000 C   0  0  1  0  0  0  0  0  0  0  0  0
   18.2743   -9.9320    0.0000 N   0  0  0  0  0  0  0  0  0  0  0  0
   18.5292   -9.1474    0.0000 C   0  0  0  0  0  0  0  0  0  0  0  0
   17.1943   -9.1474    0.0000 C   0  0  0  0  0  0  0  0  0  0  0  0
   17.4493   -9.9320    0.0000 C   0  0  0  0  0  0  0  0  0  0  0  0
   19.3138   -8.8925    0.0000 O   0  0  0  0  0  0  0  0  0  0  0  0
  1  2  1  0  0  0  0
  2  3  1  0  0  0  0
  3  4  2  0  0  0  0
  4  5  1  0  0  0  0
  1  5  2  0  0  0  0
  1  6  1  0  0  0  0
  4  7  1  0  0  0  0
  7  8  2  0  0  0  0
  7  9  1  0  0  0  0
 10  9  1  0  0  0  0
 10 11  1  6  0  0  0
 10 12  1  0  0  0  0
 12 13  2  0  0  0  0
 12 14  1  0  0  0  0
 15 14  1  6  0  0  0
 15 16  1  0  0  0  0
 16 17  1  0  0  0  0
 16 18  1  0  0  0  0
 15 19  1  0  0  0  0
 19 20  2  0  0  0  0
 19 21  1  0  0  0  0
 22 21  1  6  0  0  0
 22 23  1  0  0  0  0
 23 24  1  0  0  0  0
 24 25  1  0  0  0  0
 24 26  1  0  0  0  0
 22 27  1  0  0  0  0
 27 28  2  0  0  0  0
 27 29  1  0  0  0  0
 30 29  1  6  0  0  0
 30 31  1  0  0  0  0
 31 32  2  0  0  0  0
 32 33  1  0  0  0  0
 33 34  2  0  0  0  0
 33 35  1  0  0  0  0
 35 36  1  0  0  0  0
 36 37  1  0  0  0  0
 38 39  2  0  0  0  0
 40 41  1  0  0  0  0
 41 42  2  0  0  0  0
 38 42  1  0  0  0  0
 39 37  1  0  0  0  0
 37 40  2  0  0  0  0
 30 43  1  0  0  0  0
 44 43  1  1  0  0  0
 45 46  1  0  0  0  0
 47 48  1  0  0  0  0
 45 48  1  0  0  0  0
 44 46  1  0  0  0  0
 44 47  1  0  0  0  0
 46 49  2  0  0  0  0
M  END
$$$$

  Mrv1823 04162023282D          

 49 51  0  0  1  0            999 V2000
    7.2679   -7.1475    0.0000 C   0  0  0  0  0  0  0  0  0  0  0  0
    7.6804   -6.4330    0.0000 O   0  0  0  0  0  0  0  0  0  0  0  0
    8.4874   -6.6045    0.0000 N   0  0  0  0  0  0  0  0  0  0  0  0
    8.5737   -7.4250    0.0000 C   0  0  0  0  0  0  0  0  0  0  0  0
    7.8200   -7.7606    0.0000 C   0  0  0  0  0  0  0  0  0  0  0  0
    6.4475   -7.2337    0.0000 C   0  0  0  0  0  0  0  0  0  0  0  0
    9.2881   -7.8375    0.0000 C   0  0  0  0  0  0  0  0  0  0  0  0
    9.2881   -8.6625    0.0000 O   0  0  0  0  0  0  0  0  0  0  0  0
   10.0026   -7.4250    0.0000 N   0  0  0  0  0  0  0  0  0  0  0  0
   10.7171   -7.8375    0.0000 C   0  0  1  0  0  0  0  0  0  0  0  0
   10.7171   -8.6625    0.0000 C   0  0  0  0  0  0  0  0  0  0  0  0
   11.4315   -7.4250    0.0000 C   0  0  0  0  0  0  0  0  0  0  0  0
   11.4315   -6.6000    0.0000 O   0  0  0  0  0  0  0  0  0  0  0  0
   12.1460   -7.8375    0.0000 N   0  0  0  0  0  0  0  0  0  0  0  0
   12.8605   -7.4250    0.0000 C   0  0  2  0  0  0  0  0  0  0  0  0
   12.8605   -6.6000    0.0000 C   0  0  0  0  0  0  0  0  0  0  0  0
   13.5749   -6.1875    0.0000 C   0  0  0  0  0  0  0  0  0  0  0  0
   12.1460   -6.1875    0.0000 C   0  0  0  0  0  0  0  0  0  0  0  0
   13.5749   -7.8375    0.0000 C   0  0  0  0  0  0  0  0  0  0  0  0
   13.5749   -8.6625    0.0000 O   0  0  0  0  0  0  0  0  0  0  0  0
   14.2894   -7.4250    0.0000 N   0  0  0  0  0  0  0  0  0  0  0  0
   15.0039   -7.8375    0.0000 C   0  0  1  0  0  0  0  0  0  0  0  0
   15.0039   -8.6625    0.0000 C   0  0  0  0  0  0  0  0  0  0  0  0
   15.7184   -9.0750    0.0000 C   0  0  0  0  0  0  0  0  0  0  0  0
   16.4328   -8.6625    0.0000 C   0  0  0  0  0  0  0  0  0  0  0  0
   15.7184   -9.9000    0.0000 C   0  0  0  0  0  0  0  0  0  0  0  0
   15.7184   -7.4250    0.0000 C   0  0  0  0  0  0  0  0  0  0  0  0
   15.7184   -6.6000    0.0000 O   0  0  0  0  0  0  0  0  0  0  0  0
   16.4328   -7.8375    0.0000 N   0  0  0  0  0  0  0  0  0  0  0  0
   17.1473   -7.4250    0.0000 C   0  0  1  0  0  0  0  0  0  0  0  0
   17.1473   -6.6000    0.0000 C   0  0  0  0  0  0  0  0  0  0  0  0
   17.8618   -6.1875    0.0000 C   0  0  0  0  0  0  0  0  0  0  0  0
   18.5762   -6.6000    0.0000 C   0  0  0  0  0  0  0  0  0  0  0  0
   18.5762   -7.4250    0.0000 O   0  0  0  0  0  0  0  0  0  0  0  0
   19.2907   -6.1875    0.0000 O   0  0  0  0  0  0  0  0  0  0  0  0
   19.2907   -5.3625    0.0000 C   0  0  0  0  0  0  0  0  0  0  0  0
   20.0052   -4.9500    0.0000 C   0  0  0  0  0  0  0  0  0  0  0  0
   20.7197   -3.7125    0.0000 C   0  0  0  0  0  0  0  0  0  0  0  0
   20.0052   -4.1250    0.0000 C   0  0  0  0  0  0  0  0  0  0  0  0
   20.7197   -5.3625    0.0000 C   0  0  0  0  0  0  0  0  0  0  0  0
   21.4341   -4.9500    0.0000 C   0  0  0  0  0  0  0  0  0  0  0  0
   21.4341   -4.1250    0.0000 C   0  0  0  0  0  0  0  0  0  0  0  0
   17.8618   -7.8375    0.0000 C   0  0  0  0  0  0  0  0  0  0  0  0
   17.8618   -8.6625    0.0000 C   0  0  2  0  0  0  0  0  0  0  0  0
   18.2743   -9.9320    0.0000 N   0  0  0  0  0  0  0  0  0  0  0  0
   18.5292   -9.1474    0.0000 C   0  0  0  0  0  0  0  0  0  0  0  0
   17.1943   -9.1474    0.0000 C   0  0  0  0  0  0  0  0  0  0  0  0
   17.4493   -9.9320    0.0000 C   0  0  0  0  0  0  0  0  0  0  0  0
   19.3138   -8.8925    0.0000 O   0  0  0  0  0  0  0  0  0  0  0  0
  1  2  1  0  0  0  0
  2  3  1  0  0  0  0
  3  4  2  0  0  0  0
  4  5  1  0  0  0  0
  1  5  2  0  0  0  0
  1  6  1  0  0  0  0
  4  7  1  0  0  0  0
  7  8  2  0  0  0  0
  7  9  1  0  0  0  0
 10  9  1  0  0  0  0
 10 11  1  6  0  0  0
 10 12  1  0  0  0  0
 12 13  2  0  0  0  0
 12 14  1  0  0  0  0
 15 14  1  6  0  0  0
 15 16  1  0  0  0  0
 16 17  1  0  0  0  0
 16 18  1  0  0  0  0
 15 19  1  0  0  0  0
 19 20  2  0  0  0  0
 19 21  1  0  0  0  0
 22 21  1  6  0  0  0
 22 23  1  0  0  0  0
 23 24  1  0  0  0  0
 24 25  1  0  0  0  0
 24 26  1  0  0  0  0
 22 27  1  0  0  0  0
 27 28  2  0  0  0  0
 27 29  1  0  0  0  0
 30 29  1  1  0  0  0
 30 31  1  0  0  0  0
 31 32  2  0  0  0  0
 32 33  1  0  0  0  0
 33 34  2  0  0  0  0
 33 35  1  0  0  0  0
 35 36  1  0  0  0  0
 36 37  1  0  0  0  0
 38 39  2  0  0  0  0
 40 41  1  0  0  0  0
 41 42  2  0  0  0  0
 38 42  1  0  0  0  0
 39 37  1  0  0  0  0
 37 40  2  0  0  0  0
 30 43  1  0  0  0  0
 44 43  1  6  0  0  0
 45 46  1  0  0  0  0
 47 48  1  0  0  0  0
 45 48  1  0  0  0  0
 44 46  1  0  0  0  0
 44 47  1  0  0  0  0
 46 49  2  0  0  0  0
M  END
$$$$

  Mrv1823 04162023282D          

 49 51  0  0  1  0            999 V2000
    7.2679   -7.1475    0.0000 C   0  0  0  0  0  0  0  0  0  0  0  0
    7.6804   -6.4330    0.0000 O   0  0  0  0  0  0  0  0  0  0  0  0
    8.4874   -6.6045    0.0000 N   0  0  0  0  0  0  0  0  0  0  0  0
    8.5737   -7.4250    0.0000 C   0  0  0  0  0  0  0  0  0  0  0  0
    7.8200   -7.7606    0.0000 C   0  0  0  0  0  0  0  0  0  0  0  0
    6.4475   -7.2337    0.0000 C   0  0  0  0  0  0  0  0  0  0  0  0
    9.2881   -7.8375    0.0000 C   0  0  0  0  0  0  0  0  0  0  0  0
    9.2881   -8.6625    0.0000 O   0  0  0  0  0  0  0  0  0  0  0  0
   10.0026   -7.4250    0.0000 N   0  0  0  0  0  0  0  0  0  0  0  0
   10.7171   -7.8375    0.0000 C   0  0  1  0  0  0  0  0  0  0  0  0
   10.7171   -8.6625    0.0000 C   0  0  0  0  0  0  0  0  0  0  0  0
   11.4315   -7.4250    0.0000 C   0  0  0  0  0  0  0  0  0  0  0  0
   11.4315   -6.6000    0.0000 O   0  0  0  0  0  0  0  0  0  0  0  0
   12.1460   -7.8375    0.0000 N   0  0  0  0  0  0  0  0  0  0  0  0
   12.8605   -7.4250    0.0000 C   0  0  2  0  0  0  0  0  0  0  0  0
   12.8605   -6.6000    0.0000 C   0  0  0  0  0  0  0  0  0  0  0  0
   13.5749   -6.1875    0.0000 C   0  0  0  0  0  0  0  0  0  0  0  0
   12.1460   -6.1875    0.0000 C   0  0  0  0  0  0  0  0  0  0  0  0
   13.5749   -7.8375    0.0000 C   0  0  0  0  0  0  0  0  0  0  0  0
   13.5749   -8.6625    0.0000 O   0  0  0  0  0  0  0  0  0  0  0  0
   14.2894   -7.4250    0.0000 N   0  0  0  0  0  0  0  0  0  0  0  0
   15.0039   -7.8375    0.0000 C   0  0  1  0  0  0  0  0  0  0  0  0
   15.0039   -8.6625    0.0000 C   0  0  0  0  0  0  0  0  0  0  0  0
   15.7184   -9.0750    0.0000 C   0  0  0  0  0  0  0  0  0  0  0  0
   16.4328   -8.6625    0.0000 C   0  0  0  0  0  0  0  0  0  0  0  0
   15.7184   -9.9000    0.0000 C   0  0  0  0  0  0  0  0  0  0  0  0
   15.7184   -7.4250    0.0000 C   0  0  0  0  0  0  0  0  0  0  0  0
   15.7184   -6.6000    0.0000 O   0  0  0  0  0  0  0  0  0  0  0  0
   16.4328   -7.8375    0.0000 N   0  0  0  0  0  0  0  0  0  0  0  0
   17.1473   -7.4250    0.0000 C   0  0  1  0  0  0  0  0  0  0  0  0
   17.1473   -6.6000    0.0000 C   0  0  0  0  0  0  0  0  0  0  0  0
   17.8618   -6.1875    0.0000 C   0  0  0  0  0  0  0  0  0  0  0  0
   18.5762   -6.6000    0.0000 C   0  0  0  0  0  0  0  0  0  0  0  0
   18.5762   -7.4250    0.0000 O   0  0  0  0  0  0  0  0  0  0  0  0
   19.2907   -6.1875    0.0000 O   0  0  0  0  0  0  0  0  0  0  0  0
   19.2907   -5.3625    0.0000 C   0  0  0  0  0  0  0  0  0  0  0  0
   20.0052   -4.9500    0.0000 C   0  0  0  0  0  0  0  0  0  0  0  0
   20.7197   -3.7125    0.0000 C   0  0  0  0  0  0  0  0  0  0  0  0
   20.0052   -4.1250    0.0000 C   0  0  0  0  0  0  0  0  0  0  0  0
   20.7197   -5.3625    0.0000 C   0  0  0  0  0  0  0  0  0  0  0  0
   21.4341   -4.9500    0.0000 C   0  0  0  0  0  0  0  0  0  0  0  0
   21.4341   -4.1250    0.0000 C   0  0  0  0  0  0  0  0  0  0  0  0
   17.8618   -7.8375    0.0000 C   0  0  0  0  0  0  0  0  0  0  0  0
   17.8618   -8.6625    0.0000 C   0  0  1  0  0  0  0  0  0  0  0  0
   18.2743   -9.9320    0.0000 N   0  0  0  0  0  0  0  0  0  0  0  0
   18.5292   -9.1474    0.0000 C   0  0  0  0  0  0  0  0  0  0  0  0
   17.1943   -9.1474    0.0000 C   0  0  0  0  0  0  0  0  0  0  0  0
   17.4493   -9.9320    0.0000 C   0  0  0  0  0  0  0  0  0  0  0  0
   19.3138   -8.8925    0.0000 O   0  0  0  0  0  0  0  0  0  0  0  0
  1  2  1  0  0  0  0
  2  3  1  0  0  0  0
  3  4  2  0  0  0  0
  4  5  1  0  0  0  0
  1  5  2  0  0  0  0
  1  6  1  0  0  0  0
  4  7  1  0  0  0  0
  7  8  2  0  0  0  0
  7  9  1  0  0  0  0
 10  9  1  0  0  0  0
 10 11  1  6  0  0  0
 10 12  1  0  0  0  0
 12 13  2  0  0  0  0
 12 14  1  0  0  0  0
 15 14  1  6  0  0  0
 15 16  1  0  0  0  0
 16 17  1  0  0  0  0
 16 18  1  0  0  0  0
 15 19  1  0  0  0  0
 19 20  2  0  0  0  0
 19 21  1  0  0  0  0
 22 21  1  6  0  0  0
 22 23  1  0  0  0  0
 23 24  1  0  0  0  0
 24 25  1  0  0  0  0
 24 26  1  0  0  0  0
 22 27  1  0  0  0  0
 27 28  2  0  0  0  0
 27 29  1  0  0  0  0
 30 29  1  1  0  0  0
 30 31  1  0  0  0  0
 31 32  2  0  0  0  0
 32 33  1  0  0  0  0
 33 34  2  0  0  0  0
 33 35  1  0  0  0  0
 35 36  1  0  0  0  0
 36 37  1  0  0  0  0
 38 39  2  0  0  0  0
 40 41  1  0  0  0  0
 41 42  2  0  0  0  0
 38 42  1  0  0  0  0
 39 37  1  0  0  0  0
 37 40  2  0  0  0  0
 30 43  1  0  0  0  0
 44 43  1  1  0  0  0
 45 46  1  0  0  0  0
 47 48  1  0  0  0  0
 45 48  1  0  0  0  0
 44 46  1  0  0  0  0
 44 47  1  0  0  0  0
 46 49  2  0  0  0  0
M  END
$$$$

  Mrv1823 04162023282D          

 49 51  0  0  1  0            999 V2000
    7.2679   -7.1475    0.0000 C   0  0  0  0  0  0  0  0  0  0  0  0
    7.6804   -6.4330    0.0000 O   0  0  0  0  0  0  0  0  0  0  0  0
    8.4874   -6.6045    0.0000 N   0  0  0  0  0  0  0  0  0  0  0  0
    8.5737   -7.4250    0.0000 C   0  0  0  0  0  0  0  0  0  0  0  0
    7.8200   -7.7606    0.0000 C   0  0  0  0  0  0  0  0  0  0  0  0
    6.4475   -7.2337    0.0000 C   0  0  0  0  0  0  0  0  0  0  0  0
    9.2881   -7.8375    0.0000 C   0  0  0  0  0  0  0  0  0  0  0  0
    9.2881   -8.6625    0.0000 O   0  0  0  0  0  0  0  0  0  0  0  0
   10.0026   -7.4250    0.0000 N   0  0  0  0  0  0  0  0  0  0  0  0
   10.7171   -7.8375    0.0000 C   0  0  2  0  0  0  0  0  0  0  0  0
   10.7171   -8.6625    0.0000 C   0  0  0  0  0  0  0  0  0  0  0  0
   11.4315   -7.4250    0.0000 C   0  0  0  0  0  0  0  0  0  0  0  0
   11.4315   -6.6000    0.0000 O   0  0  0  0  0  0  0  0  0  0  0  0
   12.1460   -7.8375    0.0000 N   0  0  0  0  0  0  0  0  0  0  0  0
   12.8605   -7.4250    0.0000 C   0  0  1  0  0  0  0  0  0  0  0  0
   12.8605   -6.6000    0.0000 C   0  0  0  0  0  0  0  0  0  0  0  0
   13.5749   -6.1875    0.0000 C   0  0  0  0  0  0  0  0  0  0  0  0
   12.1460   -6.1875    0.0000 C   0  0  0  0  0  0  0  0  0  0  0  0
   13.5749   -7.8375    0.0000 C   0  0  0  0  0  0  0  0  0  0  0  0
   13.5749   -8.6625    0.0000 O   0  0  0  0  0  0  0  0  0  0  0  0
   14.2894   -7.4250    0.0000 N   0  0  0  0  0  0  0  0  0  0  0  0
   15.0039   -7.8375    0.0000 C   0  0  2  0  0  0  0  0  0  0  0  0
   15.0039   -8.6625    0.0000 C   0  0  0  0  0  0  0  0  0  0  0  0
   15.7184   -9.0750    0.0000 C   0  0  0  0  0  0  0  0  0  0  0  0
   16.4328   -8.6625    0.0000 C   0  0  0  0  0  0  0  0  0  0  0  0
   15.7184   -9.9000    0.0000 C   0  0  0  0  0  0  0  0  0  0  0  0
   15.7184   -7.4250    0.0000 C   0  0  0  0  0  0  0  0  0  0  0  0
   15.7184   -6.6000    0.0000 O   0  0  0  0  0  0  0  0  0  0  0  0
   16.4328   -7.8375    0.0000 N   0  0  0  0  0  0  0  0  0  0  0  0
   17.1473   -7.4250    0.0000 C   0  0  2  0  0  0  0  0  0  0  0  0
   17.1473   -6.6000    0.0000 C   0  0  0  0  0  0  0  0  0  0  0  0
   17.8618   -6.1875    0.0000 C   0  0  0  0  0  0  0  0  0  0  0  0
   18.5762   -6.6000    0.0000 C   0  0  0  0  0  0  0  0  0  0  0  0
   18.5762   -7.4250    0.0000 O   0  0  0  0  0  0  0  0  0  0  0  0
   19.2907   -6.1875    0.0000 O   0  0  0  0  0  0  0  0  0  0  0  0
   19.2907   -5.3625    0.0000 C   0  0  0  0  0  0  0  0  0  0  0  0
   20.0052   -4.9500    0.0000 C   0  0  0  0  0  0  0  0  0  0  0  0
   20.7197   -3.7125    0.0000 C   0  0  0  0  0  0  0  0  0  0  0  0
   20.0052   -4.1250    0.0000 C   0  0  0  0  0  0  0  0  0  0  0  0
   20.7197   -5.3625    0.0000 C   0  0  0  0  0  0  0  0  0  0  0  0
   21.4341   -4.9500    0.0000 C   0  0  0  0  0  0  0  0  0  0  0  0
   21.4341   -4.1250    0.0000 C   0  0  0  0  0  0  0  0  0  0  0  0
   17.8618   -7.8375    0.0000 C   0  0  0  0  0  0  0  0  0  0  0  0
   17.8618   -8.6625    0.0000 C   0  0  2  0  0  0  0  0  0  0  0  0
   18.2743   -9.9320    0.0000 N   0  0  0  0  0  0  0  0  0  0  0  0
   18.5292   -9.1474    0.0000 C   0  0  0  0  0  0  0  0  0  0  0  0
   17.1943   -9.1474    0.0000 C   0  0  0  0  0  0  0  0  0  0  0  0
   17.4493   -9.9320    0.0000 C   0  0  0  0  0  0  0  0  0  0  0  0
   19.3138   -8.8925    0.0000 O   0  0  0  0  0  0  0  0  0  0  0  0
  1  2  1  0  0  0  0
  2  3  1  0  0  0  0
  3  4  2  0  0  0  0
  4  5  1  0  0  0  0
  1  5  2  0  0  0  0
  1  6  1  0  0  0  0
  4  7  1  0  0  0  0
  7  8  2  0  0  0  0
  7  9  1  0  0  0  0
 10  9  1  0  0  0  0
 10 11  1  1  0  0  0
 10 12  1  0  0  0  0
 12 13  2  0  0  0  0
 12 14  1  0  0  0  0
 15 14  1  1  0  0  0
 15 16  1  0  0  0  0
 16 17  1  0  0  0  0
 16 18  1  0  0  0  0
 15 19  1  0  0  0  0
 19 20  2  0  0  0  0
 19 21  1  0  0  0  0
 22 21  1  1  0  0  0
 22 23  1  0  0  0  0
 23 24  1  0  0  0  0
 24 25  1  0  0  0  0
 24 26  1  0  0  0  0
 22 27  1  0  0  0  0
 27 28  2  0  0  0  0
 27 29  1  0  0  0  0
 30 29  1  6  0  0  0
 30 31  1  0  0  0  0
 31 32  2  0  0  0  0
 32 33  1  0  0  0  0
 33 34  2  0  0  0  0
 33 35  1  0  0  0  0
 35 36  1  0  0  0  0
 36 37  1  0  0  0  0
 38 39  2  0  0  0  0
 40 41  1  0  0  0  0
 41 42  2  0  0  0  0
 38 42  1  0  0  0  0
 39 37  1  0  0  0  0
 37 40  2  0  0  0  0
 30 43  1  0  0  0  0
 44 43  1  6  0  0  0
 45 46  1  0  0  0  0
 47 48  1  0  0  0  0
 45 48  1  0  0  0  0
 44 46  1  0  0  0  0
 44 47  1  0  0  0  0
 46 49  2  0  0  0  0
M  END
$$$$

  Mrv1823 04162023282D          

 49 51  0  0  1  0            999 V2000
    7.2679   -7.1475    0.0000 C   0  0  0  0  0  0  0  0  0  0  0  0
    7.6804   -6.4330    0.0000 O   0  0  0  0  0  0  0  0  0  0  0  0
    8.4874   -6.6045    0.0000 N   0  0  0  0  0  0  0  0  0  0  0  0
    8.5737   -7.4250    0.0000 C   0  0  0  0  0  0  0  0  0  0  0  0
    7.8200   -7.7606    0.0000 C   0  0  0  0  0  0  0  0  0  0  0  0
    6.4475   -7.2337    0.0000 C   0  0  0  0  0  0  0  0  0  0  0  0
    9.2881   -7.8375    0.0000 C   0  0  0  0  0  0  0  0  0  0  0  0
    9.2881   -8.6625    0.0000 O   0  0  0  0  0  0  0  0  0  0  0  0
   10.0026   -7.4250    0.0000 N   0  0  0  0  0  0  0  0  0  0  0  0
   10.7171   -7.8375    0.0000 C   0  0  2  0  0  0  0  0  0  0  0  0
   10.7171   -8.6625    0.0000 C   0  0  0  0  0  0  0  0  0  0  0  0
   11.4315   -7.4250    0.0000 C   0  0  0  0  0  0  0  0  0  0  0  0
   11.4315   -6.6000    0.0000 O   0  0  0  0  0  0  0  0  0  0  0  0
   12.1460   -7.8375    0.0000 N   0  0  0  0  0  0  0  0  0  0  0  0
   12.8605   -7.4250    0.0000 C   0  0  1  0  0  0  0  0  0  0  0  0
   12.8605   -6.6000    0.0000 C   0  0  0  0  0  0  0  0  0  0  0  0
   13.5749   -6.1875    0.0000 C   0  0  0  0  0  0  0  0  0  0  0  0
   12.1460   -6.1875    0.0000 C   0  0  0  0  0  0  0  0  0  0  0  0
   13.5749   -7.8375    0.0000 C   0  0  0  0  0  0  0  0  0  0  0  0
   13.5749   -8.6625    0.0000 O   0  0  0  0  0  0  0  0  0  0  0  0
   14.2894   -7.4250    0.0000 N   0  0  0  0  0  0  0  0  0  0  0  0
   15.0039   -7.8375    0.0000 C   0  0  2  0  0  0  0  0  0  0  0  0
   15.0039   -8.6625    0.0000 C   0  0  0  0  0  0  0  0  0  0  0  0
   15.7184   -9.0750    0.0000 C   0  0  0  0  0  0  0  0  0  0  0  0
   16.4328   -8.6625    0.0000 C   0  0  0  0  0  0  0  0  0  0  0  0
   15.7184   -9.9000    0.0000 C   0  0  0  0  0  0  0  0  0  0  0  0
   15.7184   -7.4250    0.0000 C   0  0  0  0  0  0  0  0  0  0  0  0
   15.7184   -6.6000    0.0000 O   0  0  0  0  0  0  0  0  0  0  0  0
   16.4328   -7.8375    0.0000 N   0  0  0  0  0  0  0  0  0  0  0  0
   17.1473   -7.4250    0.0000 C   0  0  2  0  0  0  0  0  0  0  0  0
   17.1473   -6.6000    0.0000 C   0  0  0  0  0  0  0  0  0  0  0  0
   17.8618   -6.1875    0.0000 C   0  0  0  0  0  0  0  0  0  0  0  0
   18.5762   -6.6000    0.0000 C   0  0  0  0  0  0  0  0  0  0  0  0
   18.5762   -7.4250    0.0000 O   0  0  0  0  0  0  0  0  0  0  0  0
   19.2907   -6.1875    0.0000 O   0  0  0  0  0  0  0  0  0  0  0  0
   19.2907   -5.3625    0.0000 C   0  0  0  0  0  0  0  0  0  0  0  0
   20.0052   -4.9500    0.0000 C   0  0  0  0  0  0  0  0  0  0  0  0
   20.7197   -3.7125    0.0000 C   0  0  0  0  0  0  0  0  0  0  0  0
   20.0052   -4.1250    0.0000 C   0  0  0  0  0  0  0  0  0  0  0  0
   20.7197   -5.3625    0.0000 C   0  0  0  0  0  0  0  0  0  0  0  0
   21.4341   -4.9500    0.0000 C   0  0  0  0  0  0  0  0  0  0  0  0
   21.4341   -4.1250    0.0000 C   0  0  0  0  0  0  0  0  0  0  0  0
   17.8618   -7.8375    0.0000 C   0  0  0  0  0  0  0  0  0  0  0  0
   17.8618   -8.6625    0.0000 C   0  0  1  0  0  0  0  0  0  0  0  0
   18.2743   -9.9320    0.0000 N   0  0  0  0  0  0  0  0  0  0  0  0
   18.5292   -9.1474    0.0000 C   0  0  0  0  0  0  0  0  0  0  0  0
   17.1943   -9.1474    0.0000 C   0  0  0  0  0  0  0  0  0  0  0  0
   17.4493   -9.9320    0.0000 C   0  0  0  0  0  0  0  0  0  0  0  0
   19.3138   -8.8925    0.0000 O   0  0  0  0  0  0  0  0  0  0  0  0
  1  2  1  0  0  0  0
  2  3  1  0  0  0  0
  3  4  2  0  0  0  0
  4  5  1  0  0  0  0
  1  5  2  0  0  0  0
  1  6  1  0  0  0  0
  4  7  1  0  0  0  0
  7  8  2  0  0  0  0
  7  9  1  0  0  0  0
 10  9  1  0  0  0  0
 10 11  1  1  0  0  0
 10 12  1  0  0  0  0
 12 13  2  0  0  0  0
 12 14  1  0  0  0  0
 15 14  1  1  0  0  0
 15 16  1  0  0  0  0
 16 17  1  0  0  0  0
 16 18  1  0  0  0  0
 15 19  1  0  0  0  0
 19 20  2  0  0  0  0
 19 21  1  0  0  0  0
 22 21  1  1  0  0  0
 22 23  1  0  0  0  0
 23 24  1  0  0  0  0
 24 25  1  0  0  0  0
 24 26  1  0  0  0  0
 22 27  1  0  0  0  0
 27 28  2  0  0  0  0
 27 29  1  0  0  0  0
 30 29  1  6  0  0  0
 30 31  1  0  0  0  0
 31 32  2  0  0  0  0
 32 33  1  0  0  0  0
 33 34  2  0  0  0  0
 33 35  1  0  0  0  0
 35 36  1  0  0  0  0
 36 37  1  0  0  0  0
 38 39  2  0  0  0  0
 40 41  1  0  0  0  0
 41 42  2  0  0  0  0
 38 42  1  0  0  0  0
 39 37  1  0  0  0  0
 37 40  2  0  0  0  0
 30 43  1  0  0  0  0
 44 43  1  1  0  0  0
 45 46  1  0  0  0  0
 47 48  1  0  0  0  0
 45 48  1  0  0  0  0
 44 46  1  0  0  0  0
 44 47  1  0  0  0  0
 46 49  2  0  0  0  0
M  END
$$$$

  Mrv1823 04162023282D          

 49 51  0  0  1  0            999 V2000
    7.2679   -7.1475    0.0000 C   0  0  0  0  0  0  0  0  0  0  0  0
    7.6804   -6.4330    0.0000 O   0  0  0  0  0  0  0  0  0  0  0  0
    8.4874   -6.6045    0.0000 N   0  0  0  0  0  0  0  0  0  0  0  0
    8.5737   -7.4250    0.0000 C   0  0  0  0  0  0  0  0  0  0  0  0
    7.8200   -7.7606    0.0000 C   0  0  0  0  0  0  0  0  0  0  0  0
    6.4475   -7.2337    0.0000 C   0  0  0  0  0  0  0  0  0  0  0  0
    9.2881   -7.8375    0.0000 C   0  0  0  0  0  0  0  0  0  0  0  0
    9.2881   -8.6625    0.0000 O   0  0  0  0  0  0  0  0  0  0  0  0
   10.0026   -7.4250    0.0000 N   0  0  0  0  0  0  0  0  0  0  0  0
   10.7171   -7.8375    0.0000 C   0  0  2  0  0  0  0  0  0  0  0  0
   10.7171   -8.6625    0.0000 C   0  0  0  0  0  0  0  0  0  0  0  0
   11.4315   -7.4250    0.0000 C   0  0  0  0  0  0  0  0  0  0  0  0
   11.4315   -6.6000    0.0000 O   0  0  0  0  0  0  0  0  0  0  0  0
   12.1460   -7.8375    0.0000 N   0  0  0  0  0  0  0  0  0  0  0  0
   12.8605   -7.4250    0.0000 C   0  0  1  0  0  0  0  0  0  0  0  0
   12.8605   -6.6000    0.0000 C   0  0  0  0  0  0  0  0  0  0  0  0
   13.5749   -6.1875    0.0000 C   0  0  0  0  0  0  0  0  0  0  0  0
   12.1460   -6.1875    0.0000 C   0  0  0  0  0  0  0  0  0  0  0  0
   13.5749   -7.8375    0.0000 C   0  0  0  0  0  0  0  0  0  0  0  0
   13.5749   -8.6625    0.0000 O   0  0  0  0  0  0  0  0  0  0  0  0
   14.2894   -7.4250    0.0000 N   0  0  0  0  0  0  0  0  0  0  0  0
   15.0039   -7.8375    0.0000 C   0  0  2  0  0  0  0  0  0  0  0  0
   15.0039   -8.6625    0.0000 C   0  0  0  0  0  0  0  0  0  0  0  0
   15.7184   -9.0750    0.0000 C   0  0  0  0  0  0  0  0  0  0  0  0
   16.4328   -8.6625    0.0000 C   0  0  0  0  0  0  0  0  0  0  0  0
   15.7184   -9.9000    0.0000 C   0  0  0  0  0  0  0  0  0  0  0  0
   15.7184   -7.4250    0.0000 C   0  0  0  0  0  0  0  0  0  0  0  0
   15.7184   -6.6000    0.0000 O   0  0  0  0  0  0  0  0  0  0  0  0
   16.4328   -7.8375    0.0000 N   0  0  0  0  0  0  0  0  0  0  0  0
   17.1473   -7.4250    0.0000 C   0  0  1  0  0  0  0  0  0  0  0  0
   17.1473   -6.6000    0.0000 C   0  0  0  0  0  0  0  0  0  0  0  0
   17.8618   -6.1875    0.0000 C   0  0  0  0  0  0  0  0  0  0  0  0
   18.5762   -6.6000    0.0000 C   0  0  0  0  0  0  0  0  0  0  0  0
   18.5762   -7.4250    0.0000 O   0  0  0  0  0  0  0  0  0  0  0  0
   19.2907   -6.1875    0.0000 O   0  0  0  0  0  0  0  0  0  0  0  0
   19.2907   -5.3625    0.0000 C   0  0  0  0  0  0  0  0  0  0  0  0
   20.0052   -4.9500    0.0000 C   0  0  0  0  0  0  0  0  0  0  0  0
   20.7197   -3.7125    0.0000 C   0  0  0  0  0  0  0  0  0  0  0  0
   20.0052   -4.1250    0.0000 C   0  0  0  0  0  0  0  0  0  0  0  0
   20.7197   -5.3625    0.0000 C   0  0  0  0  0  0  0  0  0  0  0  0
   21.4341   -4.9500    0.0000 C   0  0  0  0  0  0  0  0  0  0  0  0
   21.4341   -4.1250    0.0000 C   0  0  0  0  0  0  0  0  0  0  0  0
   17.8618   -7.8375    0.0000 C   0  0  0  0  0  0  0  0  0  0  0  0
   17.8618   -8.6625    0.0000 C   0  0  2  0  0  0  0  0  0  0  0  0
   18.2743   -9.9320    0.0000 N   0  0  0  0  0  0  0  0  0  0  0  0
   18.5292   -9.1474    0.0000 C   0  0  0  0  0  0  0  0  0  0  0  0
   17.1943   -9.1474    0.0000 C   0  0  0  0  0  0  0  0  0  0  0  0
   17.4493   -9.9320    0.0000 C   0  0  0  0  0  0  0  0  0  0  0  0
   19.3138   -8.8925    0.0000 O   0  0  0  0  0  0  0  0  0  0  0  0
  1  2  1  0  0  0  0
  2  3  1  0  0  0  0
  3  4  2  0  0  0  0
  4  5  1  0  0  0  0
  1  5  2  0  0  0  0
  1  6  1  0  0  0  0
  4  7  1  0  0  0  0
  7  8  2  0  0  0  0
  7  9  1  0  0  0  0
 10  9  1  0  0  0  0
 10 11  1  1  0  0  0
 10 12  1  0  0  0  0
 12 13  2  0  0  0  0
 12 14  1  0  0  0  0
 15 14  1  1  0  0  0
 15 16  1  0  0  0  0
 16 17  1  0  0  0  0
 16 18  1  0  0  0  0
 15 19  1  0  0  0  0
 19 20  2  0  0  0  0
 19 21  1  0  0  0  0
 22 21  1  1  0  0  0
 22 23  1  0  0  0  0
 23 24  1  0  0  0  0
 24 25  1  0  0  0  0
 24 26  1  0  0  0  0
 22 27  1  0  0  0  0
 27 28  2  0  0  0  0
 27 29  1  0  0  0  0
 30 29  1  1  0  0  0
 30 31  1  0  0  0  0
 31 32  2  0  0  0  0
 32 33  1  0  0  0  0
 33 34  2  0  0  0  0
 33 35  1  0  0  0  0
 35 36  1  0  0  0  0
 36 37  1  0  0  0  0
 38 39  2  0  0  0  0
 40 41  1  0  0  0  0
 41 42  2  0  0  0  0
 38 42  1  0  0  0  0
 39 37  1  0  0  0  0
 37 40  2  0  0  0  0
 30 43  1  0  0  0  0
 44 43  1  6  0  0  0
 45 46  1  0  0  0  0
 47 48  1  0  0  0  0
 45 48  1  0  0  0  0
 44 46  1  0  0  0  0
 44 47  1  0  0  0  0
 46 49  2  0  0  0  0
M  END
$$$$

  Mrv1823 04162023282D          

 49 51  0  0  1  0            999 V2000
    7.2679   -7.1475    0.0000 C   0  0  0  0  0  0  0  0  0  0  0  0
    7.6804   -6.4330    0.0000 O   0  0  0  0  0  0  0  0  0  0  0  0
    8.4874   -6.6045    0.0000 N   0  0  0  0  0  0  0  0  0  0  0  0
    8.5737   -7.4250    0.0000 C   0  0  0  0  0  0  0  0  0  0  0  0
    7.8200   -7.7606    0.0000 C   0  0  0  0  0  0  0  0  0  0  0  0
    6.4475   -7.2337    0.0000 C   0  0  0  0  0  0  0  0  0  0  0  0
    9.2881   -7.8375    0.0000 C   0  0  0  0  0  0  0  0  0  0  0  0
    9.2881   -8.6625    0.0000 O   0  0  0  0  0  0  0  0  0  0  0  0
   10.0026   -7.4250    0.0000 N   0  0  0  0  0  0  0  0  0  0  0  0
   10.7171   -7.8375    0.0000 C   0  0  2  0  0  0  0  0  0  0  0  0
   10.7171   -8.6625    0.0000 C   0  0  0  0  0  0  0  0  0  0  0  0
   11.4315   -7.4250    0.0000 C   0  0  0  0  0  0  0  0  0  0  0  0
   11.4315   -6.6000    0.0000 O   0  0  0  0  0  0  0  0  0  0  0  0
   12.1460   -7.8375    0.0000 N   0  0  0  0  0  0  0  0  0  0  0  0
   12.8605   -7.4250    0.0000 C   0  0  1  0  0  0  0  0  0  0  0  0
   12.8605   -6.6000    0.0000 C   0  0  0  0  0  0  0  0  0  0  0  0
   13.5749   -6.1875    0.0000 C   0  0  0  0  0  0  0  0  0  0  0  0
   12.1460   -6.1875    0.0000 C   0  0  0  0  0  0  0  0  0  0  0  0
   13.5749   -7.8375    0.0000 C   0  0  0  0  0  0  0  0  0  0  0  0
   13.5749   -8.6625    0.0000 O   0  0  0  0  0  0  0  0  0  0  0  0
   14.2894   -7.4250    0.0000 N   0  0  0  0  0  0  0  0  0  0  0  0
   15.0039   -7.8375    0.0000 C   0  0  2  0  0  0  0  0  0  0  0  0
   15.0039   -8.6625    0.0000 C   0  0  0  0  0  0  0  0  0  0  0  0
   15.7184   -9.0750    0.0000 C   0  0  0  0  0  0  0  0  0  0  0  0
   16.4328   -8.6625    0.0000 C   0  0  0  0  0  0  0  0  0  0  0  0
   15.7184   -9.9000    0.0000 C   0  0  0  0  0  0  0  0  0  0  0  0
   15.7184   -7.4250    0.0000 C   0  0  0  0  0  0  0  0  0  0  0  0
   15.7184   -6.6000    0.0000 O   0  0  0  0  0  0  0  0  0  0  0  0
   16.4328   -7.8375    0.0000 N   0  0  0  0  0  0  0  0  0  0  0  0
   17.1473   -7.4250    0.0000 C   0  0  1  0  0  0  0  0  0  0  0  0
   17.1473   -6.6000    0.0000 C   0  0  0  0  0  0  0  0  0  0  0  0
   17.8618   -6.1875    0.0000 C   0  0  0  0  0  0  0  0  0  0  0  0
   18.5762   -6.6000    0.0000 C   0  0  0  0  0  0  0  0  0  0  0  0
   18.5762   -7.4250    0.0000 O   0  0  0  0  0  0  0  0  0  0  0  0
   19.2907   -6.1875    0.0000 O   0  0  0  0  0  0  0  0  0  0  0  0
   19.2907   -5.3625    0.0000 C   0  0  0  0  0  0  0  0  0  0  0  0
   20.0052   -4.9500    0.0000 C   0  0  0  0  0  0  0  0  0  0  0  0
   20.7197   -3.7125    0.0000 C   0  0  0  0  0  0  0  0  0  0  0  0
   20.0052   -4.1250    0.0000 C   0  0  0  0  0  0  0  0  0  0  0  0
   20.7197   -5.3625    0.0000 C   0  0  0  0  0  0  0  0  0  0  0  0
   21.4341   -4.9500    0.0000 C   0  0  0  0  0  0  0  0  0  0  0  0
   21.4341   -4.1250    0.0000 C   0  0  0  0  0  0  0  0  0  0  0  0
   17.8618   -7.8375    0.0000 C   0  0  0  0  0  0  0  0  0  0  0  0
   17.8618   -8.6625    0.0000 C   0  0  1  0  0  0  0  0  0  0  0  0
   18.2743   -9.9320    0.0000 N   0  0  0  0  0  0  0  0  0  0  0  0
   18.5292   -9.1474    0.0000 C   0  0  0  0  0  0  0  0  0  0  0  0
   17.1943   -9.1474    0.0000 C   0  0  0  0  0  0  0  0  0  0  0  0
   17.4493   -9.9320    0.0000 C   0  0  0  0  0  0  0  0  0  0  0  0
   19.3138   -8.8925    0.0000 O   0  0  0  0  0  0  0  0  0  0  0  0
  1  2  1  0  0  0  0
  2  3  1  0  0  0  0
  3  4  2  0  0  0  0
  4  5  1  0  0  0  0
  1  5  2  0  0  0  0
  1  6  1  0  0  0  0
  4  7  1  0  0  0  0
  7  8  2  0  0  0  0
  7  9  1  0  0  0  0
 10  9  1  0  0  0  0
 10 11  1  1  0  0  0
 10 12  1  0  0  0  0
 12 13  2  0  0  0  0
 12 14  1  0  0  0  0
 15 14  1  1  0  0  0
 15 16  1  0  0  0  0
 16 17  1  0  0  0  0
 16 18  1  0  0  0  0
 15 19  1  0  0  0  0
 19 20  2  0  0  0  0
 19 21  1  0  0  0  0
 22 21  1  1  0  0  0
 22 23  1  0  0  0  0
 23 24  1  0  0  0  0
 24 25  1  0  0  0  0
 24 26  1  0  0  0  0
 22 27  1  0  0  0  0
 27 28  2  0  0  0  0
 27 29  1  0  0  0  0
 30 29  1  1  0  0  0
 30 31  1  0  0  0  0
 31 32  2  0  0  0  0
 32 33  1  0  0  0  0
 33 34  2  0  0  0  0
 33 35  1  0  0  0  0
 35 36  1  0  0  0  0
 36 37  1  0  0  0  0
 38 39  2  0  0  0  0
 40 41  1  0  0  0  0
 41 42  2  0  0  0  0
 38 42  1  0  0  0  0
 39 37  1  0  0  0  0
 37 40  2  0  0  0  0
 30 43  1  0  0  0  0
 44 43  1  1  0  0  0
 45 46  1  0  0  0  0
 47 48  1  0  0  0  0
 45 48  1  0  0  0  0
 44 46  1  0  0  0  0
 44 47  1  0  0  0  0
 46 49  2  0  0  0  0
M  END
$$$$

  Mrv1823 04162023282D          

 49 51  0  0  1  0            999 V2000
    7.2679   -7.1475    0.0000 C   0  0  0  0  0  0  0  0  0  0  0  0
    7.6804   -6.4330    0.0000 O   0  0  0  0  0  0  0  0  0  0  0  0
    8.4874   -6.6045    0.0000 N   0  0  0  0  0  0  0  0  0  0  0  0
    8.5737   -7.4250    0.0000 C   0  0  0  0  0  0  0  0  0  0  0  0
    7.8200   -7.7606    0.0000 C   0  0  0  0  0  0  0  0  0  0  0  0
    6.4475   -7.2337    0.0000 C   0  0  0  0  0  0  0  0  0  0  0  0
    9.2881   -7.8375    0.0000 C   0  0  0  0  0  0  0  0  0  0  0  0
    9.2881   -8.6625    0.0000 O   0  0  0  0  0  0  0  0  0  0  0  0
   10.0026   -7.4250    0.0000 N   0  0  0  0  0  0  0  0  0  0  0  0
   10.7171   -7.8375    0.0000 C   0  0  1  0  0  0  0  0  0  0  0  0
   10.7171   -8.6625    0.0000 C   0  0  0  0  0  0  0  0  0  0  0  0
   11.4315   -7.4250    0.0000 C   0  0  0  0  0  0  0  0  0  0  0  0
   11.4315   -6.6000    0.0000 O   0  0  0  0  0  0  0  0  0  0  0  0
   12.1460   -7.8375    0.0000 N   0  0  0  0  0  0  0  0  0  0  0  0
   12.8605   -7.4250    0.0000 C   0  0  1  0  0  0  0  0  0  0  0  0
   12.8605   -6.6000    0.0000 C   0  0  0  0  0  0  0  0  0  0  0  0
   13.5749   -6.1875    0.0000 C   0  0  0  0  0  0  0  0  0  0  0  0
   12.1460   -6.1875    0.0000 C   0  0  0  0  0  0  0  0  0  0  0  0
   13.5749   -7.8375    0.0000 C   0  0  0  0  0  0  0  0  0  0  0  0
   13.5749   -8.6625    0.0000 O   0  0  0  0  0  0  0  0  0  0  0  0
   14.2894   -7.4250    0.0000 N   0  0  0  0  0  0  0  0  0  0  0  0
   15.0039   -7.8375    0.0000 C   0  0  2  0  0  0  0  0  0  0  0  0
   15.0039   -8.6625    0.0000 C   0  0  0  0  0  0  0  0  0  0  0  0
   15.7184   -9.0750    0.0000 C   0  0  0  0  0  0  0  0  0  0  0  0
   16.4328   -8.6625    0.0000 C   0  0  0  0  0  0  0  0  0  0  0  0
   15.7184   -9.9000    0.0000 C   0  0  0  0  0  0  0  0  0  0  0  0
   15.7184   -7.4250    0.0000 C   0  0  0  0  0  0  0  0  0  0  0  0
   15.7184   -6.6000    0.0000 O   0  0  0  0  0  0  0  0  0  0  0  0
   16.4328   -7.8375    0.0000 N   0  0  0  0  0  0  0  0  0  0  0  0
   17.1473   -7.4250    0.0000 C   0  0  2  0  0  0  0  0  0  0  0  0
   17.1473   -6.6000    0.0000 C   0  0  0  0  0  0  0  0  0  0  0  0
   17.8618   -6.1875    0.0000 C   0  0  0  0  0  0  0  0  0  0  0  0
   18.5762   -6.6000    0.0000 C   0  0  0  0  0  0  0  0  0  0  0  0
   18.5762   -7.4250    0.0000 O   0  0  0  0  0  0  0  0  0  0  0  0
   19.2907   -6.1875    0.0000 O   0  0  0  0  0  0  0  0  0  0  0  0
   19.2907   -5.3625    0.0000 C   0  0  0  0  0  0  0  0  0  0  0  0
   20.0052   -4.9500    0.0000 C   0  0  0  0  0  0  0  0  0  0  0  0
   20.7197   -3.7125    0.0000 C   0  0  0  0  0  0  0  0  0  0  0  0
   20.0052   -4.1250    0.0000 C   0  0  0  0  0  0  0  0  0  0  0  0
   20.7197   -5.3625    0.0000 C   0  0  0  0  0  0  0  0  0  0  0  0
   21.4341   -4.9500    0.0000 C   0  0  0  0  0  0  0  0  0  0  0  0
   21.4341   -4.1250    0.0000 C   0  0  0  0  0  0  0  0  0  0  0  0
   17.8618   -7.8375    0.0000 C   0  0  0  0  0  0  0  0  0  0  0  0
   17.8618   -8.6625    0.0000 C   0  0  2  0  0  0  0  0  0  0  0  0
   18.2743   -9.9320    0.0000 N   0  0  0  0  0  0  0  0  0  0  0  0
   18.5292   -9.1474    0.0000 C   0  0  0  0  0  0  0  0  0  0  0  0
   17.1943   -9.1474    0.0000 C   0  0  0  0  0  0  0  0  0  0  0  0
   17.4493   -9.9320    0.0000 C   0  0  0  0  0  0  0  0  0  0  0  0
   19.3138   -8.8925    0.0000 O   0  0  0  0  0  0  0  0  0  0  0  0
  1  2  1  0  0  0  0
  2  3  1  0  0  0  0
  3  4  2  0  0  0  0
  4  5  1  0  0  0  0
  1  5  2  0  0  0  0
  1  6  1  0  0  0  0
  4  7  1  0  0  0  0
  7  8  2  0  0  0  0
  7  9  1  0  0  0  0
 10  9  1  0  0  0  0
 10 11  1  6  0  0  0
 10 12  1  0  0  0  0
 12 13  2  0  0  0  0
 12 14  1  0  0  0  0
 15 14  1  1  0  0  0
 15 16  1  0  0  0  0
 16 17  1  0  0  0  0
 16 18  1  0  0  0  0
 15 19  1  0  0  0  0
 19 20  2  0  0  0  0
 19 21  1  0  0  0  0
 22 21  1  1  0  0  0
 22 23  1  0  0  0  0
 23 24  1  0  0  0  0
 24 25  1  0  0  0  0
 24 26  1  0  0  0  0
 22 27  1  0  0  0  0
 27 28  2  0  0  0  0
 27 29  1  0  0  0  0
 30 29  1  6  0  0  0
 30 31  1  0  0  0  0
 31 32  2  0  0  0  0
 32 33  1  0  0  0  0
 33 34  2  0  0  0  0
 33 35  1  0  0  0  0
 35 36  1  0  0  0  0
 36 37  1  0  0  0  0
 38 39  2  0  0  0  0
 40 41  1  0  0  0  0
 41 42  2  0  0  0  0
 38 42  1  0  0  0  0
 39 37  1  0  0  0  0
 37 40  2  0  0  0  0
 30 43  1  0  0  0  0
 44 43  1  6  0  0  0
 45 46  1  0  0  0  0
 47 48  1  0  0  0  0
 45 48  1  0  0  0  0
 44 46  1  0  0  0  0
 44 47  1  0  0  0  0
 46 49  2  0  0  0  0
M  END
$$$$

  Mrv1823 04162023282D          

 49 51  0  0  1  0            999 V2000
    7.2679   -7.1475    0.0000 C   0  0  0  0  0  0  0  0  0  0  0  0
    7.6804   -6.4330    0.0000 O   0  0  0  0  0  0  0  0  0  0  0  0
    8.4874   -6.6045    0.0000 N   0  0  0  0  0  0  0  0  0  0  0  0
    8.5737   -7.4250    0.0000 C   0  0  0  0  0  0  0  0  0  0  0  0
    7.8200   -7.7606    0.0000 C   0  0  0  0  0  0  0  0  0  0  0  0
    6.4475   -7.2337    0.0000 C   0  0  0  0  0  0  0  0  0  0  0  0
    9.2881   -7.8375    0.0000 C   0  0  0  0  0  0  0  0  0  0  0  0
    9.2881   -8.6625    0.0000 O   0  0  0  0  0  0  0  0  0  0  0  0
   10.0026   -7.4250    0.0000 N   0  0  0  0  0  0  0  0  0  0  0  0
   10.7171   -7.8375    0.0000 C   0  0  1  0  0  0  0  0  0  0  0  0
   10.7171   -8.6625    0.0000 C   0  0  0  0  0  0  0  0  0  0  0  0
   11.4315   -7.4250    0.0000 C   0  0  0  0  0  0  0  0  0  0  0  0
   11.4315   -6.6000    0.0000 O   0  0  0  0  0  0  0  0  0  0  0  0
   12.1460   -7.8375    0.0000 N   0  0  0  0  0  0  0  0  0  0  0  0
   12.8605   -7.4250    0.0000 C   0  0  1  0  0  0  0  0  0  0  0  0
   12.8605   -6.6000    0.0000 C   0  0  0  0  0  0  0  0  0  0  0  0
   13.5749   -6.1875    0.0000 C   0  0  0  0  0  0  0  0  0  0  0  0
   12.1460   -6.1875    0.0000 C   0  0  0  0  0  0  0  0  0  0  0  0
   13.5749   -7.8375    0.0000 C   0  0  0  0  0  0  0  0  0  0  0  0
   13.5749   -8.6625    0.0000 O   0  0  0  0  0  0  0  0  0  0  0  0
   14.2894   -7.4250    0.0000 N   0  0  0  0  0  0  0  0  0  0  0  0
   15.0039   -7.8375    0.0000 C   0  0  2  0  0  0  0  0  0  0  0  0
   15.0039   -8.6625    0.0000 C   0  0  0  0  0  0  0  0  0  0  0  0
   15.7184   -9.0750    0.0000 C   0  0  0  0  0  0  0  0  0  0  0  0
   16.4328   -8.6625    0.0000 C   0  0  0  0  0  0  0  0  0  0  0  0
   15.7184   -9.9000    0.0000 C   0  0  0  0  0  0  0  0  0  0  0  0
   15.7184   -7.4250    0.0000 C   0  0  0  0  0  0  0  0  0  0  0  0
   15.7184   -6.6000    0.0000 O   0  0  0  0  0  0  0  0  0  0  0  0
   16.4328   -7.8375    0.0000 N   0  0  0  0  0  0  0  0  0  0  0  0
   17.1473   -7.4250    0.0000 C   0  0  2  0  0  0  0  0  0  0  0  0
   17.1473   -6.6000    0.0000 C   0  0  0  0  0  0  0  0  0  0  0  0
   17.8618   -6.1875    0.0000 C   0  0  0  0  0  0  0  0  0  0  0  0
   18.5762   -6.6000    0.0000 C   0  0  0  0  0  0  0  0  0  0  0  0
   18.5762   -7.4250    0.0000 O   0  0  0  0  0  0  0  0  0  0  0  0
   19.2907   -6.1875    0.0000 O   0  0  0  0  0  0  0  0  0  0  0  0
   19.2907   -5.3625    0.0000 C   0  0  0  0  0  0  0  0  0  0  0  0
   20.0052   -4.9500    0.0000 C   0  0  0  0  0  0  0  0  0  0  0  0
   20.7197   -3.7125    0.0000 C   0  0  0  0  0  0  0  0  0  0  0  0
   20.0052   -4.1250    0.0000 C   0  0  0  0  0  0  0  0  0  0  0  0
   20.7197   -5.3625    0.0000 C   0  0  0  0  0  0  0  0  0  0  0  0
   21.4341   -4.9500    0.0000 C   0  0  0  0  0  0  0  0  0  0  0  0
   21.4341   -4.1250    0.0000 C   0  0  0  0  0  0  0  0  0  0  0  0
   17.8618   -7.8375    0.0000 C   0  0  0  0  0  0  0  0  0  0  0  0
   17.8618   -8.6625    0.0000 C   0  0  1  0  0  0  0  0  0  0  0  0
   18.2743   -9.9320    0.0000 N   0  0  0  0  0  0  0  0  0  0  0  0
   18.5292   -9.1474    0.0000 C   0  0  0  0  0  0  0  0  0  0  0  0
   17.1943   -9.1474    0.0000 C   0  0  0  0  0  0  0  0  0  0  0  0
   17.4493   -9.9320    0.0000 C   0  0  0  0  0  0  0  0  0  0  0  0
   19.3138   -8.8925    0.0000 O   0  0  0  0  0  0  0  0  0  0  0  0
  1  2  1  0  0  0  0
  2  3  1  0  0  0  0
  3  4  2  0  0  0  0
  4  5  1  0  0  0  0
  1  5  2  0  0  0  0
  1  6  1  0  0  0  0
  4  7  1  0  0  0  0
  7  8  2  0  0  0  0
  7  9  1  0  0  0  0
 10  9  1  0  0  0  0
 10 11  1  6  0  0  0
 10 12  1  0  0  0  0
 12 13  2  0  0  0  0
 12 14  1  0  0  0  0
 15 14  1  1  0  0  0
 15 16  1  0  0  0  0
 16 17  1  0  0  0  0
 16 18  1  0  0  0  0
 15 19  1  0  0  0  0
 19 20  2  0  0  0  0
 19 21  1  0  0  0  0
 22 21  1  1  0  0  0
 22 23  1  0  0  0  0
 23 24  1  0  0  0  0
 24 25  1  0  0  0  0
 24 26  1  0  0  0  0
 22 27  1  0  0  0  0
 27 28  2  0  0  0  0
 27 29  1  0  0  0  0
 30 29  1  6  0  0  0
 30 31  1  0  0  0  0
 31 32  2  0  0  0  0
 32 33  1  0  0  0  0
 33 34  2  0  0  0  0
 33 35  1  0  0  0  0
 35 36  1  0  0  0  0
 36 37  1  0  0  0  0
 38 39  2  0  0  0  0
 40 41  1  0  0  0  0
 41 42  2  0  0  0  0
 38 42  1  0  0  0  0
 39 37  1  0  0  0  0
 37 40  2  0  0  0  0
 30 43  1  0  0  0  0
 44 43  1  1  0  0  0
 45 46  1  0  0  0  0
 47 48  1  0  0  0  0
 45 48  1  0  0  0  0
 44 46  1  0  0  0  0
 44 47  1  0  0  0  0
 46 49  2  0  0  0  0
M  END
$$$$

  Mrv1823 04162023282D          

 49 51  0  0  1  0            999 V2000
    7.2679   -7.1475    0.0000 C   0  0  0  0  0  0  0  0  0  0  0  0
    7.6804   -6.4330    0.0000 O   0  0  0  0  0  0  0  0  0  0  0  0
    8.4874   -6.6045    0.0000 N   0  0  0  0  0  0  0  0  0  0  0  0
    8.5737   -7.4250    0.0000 C   0  0  0  0  0  0  0  0  0  0  0  0
    7.8200   -7.7606    0.0000 C   0  0  0  0  0  0  0  0  0  0  0  0
    6.4475   -7.2337    0.0000 C   0  0  0  0  0  0  0  0  0  0  0  0
    9.2881   -7.8375    0.0000 C   0  0  0  0  0  0  0  0  0  0  0  0
    9.2881   -8.6625    0.0000 O   0  0  0  0  0  0  0  0  0  0  0  0
   10.0026   -7.4250    0.0000 N   0  0  0  0  0  0  0  0  0  0  0  0
   10.7171   -7.8375    0.0000 C   0  0  1  0  0  0  0  0  0  0  0  0
   10.7171   -8.6625    0.0000 C   0  0  0  0  0  0  0  0  0  0  0  0
   11.4315   -7.4250    0.0000 C   0  0  0  0  0  0  0  0  0  0  0  0
   11.4315   -6.6000    0.0000 O   0  0  0  0  0  0  0  0  0  0  0  0
   12.1460   -7.8375    0.0000 N   0  0  0  0  0  0  0  0  0  0  0  0
   12.8605   -7.4250    0.0000 C   0  0  1  0  0  0  0  0  0  0  0  0
   12.8605   -6.6000    0.0000 C   0  0  0  0  0  0  0  0  0  0  0  0
   13.5749   -6.1875    0.0000 C   0  0  0  0  0  0  0  0  0  0  0  0
   12.1460   -6.1875    0.0000 C   0  0  0  0  0  0  0  0  0  0  0  0
   13.5749   -7.8375    0.0000 C   0  0  0  0  0  0  0  0  0  0  0  0
   13.5749   -8.6625    0.0000 O   0  0  0  0  0  0  0  0  0  0  0  0
   14.2894   -7.4250    0.0000 N   0  0  0  0  0  0  0  0  0  0  0  0
   15.0039   -7.8375    0.0000 C   0  0  2  0  0  0  0  0  0  0  0  0
   15.0039   -8.6625    0.0000 C   0  0  0  0  0  0  0  0  0  0  0  0
   15.7184   -9.0750    0.0000 C   0  0  0  0  0  0  0  0  0  0  0  0
   16.4328   -8.6625    0.0000 C   0  0  0  0  0  0  0  0  0  0  0  0
   15.7184   -9.9000    0.0000 C   0  0  0  0  0  0  0  0  0  0  0  0
   15.7184   -7.4250    0.0000 C   0  0  0  0  0  0  0  0  0  0  0  0
   15.7184   -6.6000    0.0000 O   0  0  0  0  0  0  0  0  0  0  0  0
   16.4328   -7.8375    0.0000 N   0  0  0  0  0  0  0  0  0  0  0  0
   17.1473   -7.4250    0.0000 C   0  0  1  0  0  0  0  0  0  0  0  0
   17.1473   -6.6000    0.0000 C   0  0  0  0  0  0  0  0  0  0  0  0
   17.8618   -6.1875    0.0000 C   0  0  0  0  0  0  0  0  0  0  0  0
   18.5762   -6.6000    0.0000 C   0  0  0  0  0  0  0  0  0  0  0  0
   18.5762   -7.4250    0.0000 O   0  0  0  0  0  0  0  0  0  0  0  0
   19.2907   -6.1875    0.0000 O   0  0  0  0  0  0  0  0  0  0  0  0
   19.2907   -5.3625    0.0000 C   0  0  0  0  0  0  0  0  0  0  0  0
   20.0052   -4.9500    0.0000 C   0  0  0  0  0  0  0  0  0  0  0  0
   20.7197   -3.7125    0.0000 C   0  0  0  0  0  0  0  0  0  0  0  0
   20.0052   -4.1250    0.0000 C   0  0  0  0  0  0  0  0  0  0  0  0
   20.7197   -5.3625    0.0000 C   0  0  0  0  0  0  0  0  0  0  0  0
   21.4341   -4.9500    0.0000 C   0  0  0  0  0  0  0  0  0  0  0  0
   21.4341   -4.1250    0.0000 C   0  0  0  0  0  0  0  0  0  0  0  0
   17.8618   -7.8375    0.0000 C   0  0  0  0  0  0  0  0  0  0  0  0
   17.8618   -8.6625    0.0000 C   0  0  2  0  0  0  0  0  0  0  0  0
   18.2743   -9.9320    0.0000 N   0  0  0  0  0  0  0  0  0  0  0  0
   18.5292   -9.1474    0.0000 C   0  0  0  0  0  0  0  0  0  0  0  0
   17.1943   -9.1474    0.0000 C   0  0  0  0  0  0  0  0  0  0  0  0
   17.4493   -9.9320    0.0000 C   0  0  0  0  0  0  0  0  0  0  0  0
   19.3138   -8.8925    0.0000 O   0  0  0  0  0  0  0  0  0  0  0  0
  1  2  1  0  0  0  0
  2  3  1  0  0  0  0
  3  4  2  0  0  0  0
  4  5  1  0  0  0  0
  1  5  2  0  0  0  0
  1  6  1  0  0  0  0
  4  7  1  0  0  0  0
  7  8  2  0  0  0  0
  7  9  1  0  0  0  0
 10  9  1  0  0  0  0
 10 11  1  6  0  0  0
 10 12  1  0  0  0  0
 12 13  2  0  0  0  0
 12 14  1  0  0  0  0
 15 14  1  1  0  0  0
 15 16  1  0  0  0  0
 16 17  1  0  0  0  0
 16 18  1  0  0  0  0
 15 19  1  0  0  0  0
 19 20  2  0  0  0  0
 19 21  1  0  0  0  0
 22 21  1  1  0  0  0
 22 23  1  0  0  0  0
 23 24  1  0  0  0  0
 24 25  1  0  0  0  0
 24 26  1  0  0  0  0
 22 27  1  0  0  0  0
 27 28  2  0  0  0  0
 27 29  1  0  0  0  0
 30 29  1  1  0  0  0
 30 31  1  0  0  0  0
 31 32  2  0  0  0  0
 32 33  1  0  0  0  0
 33 34  2  0  0  0  0
 33 35  1  0  0  0  0
 35 36  1  0  0  0  0
 36 37  1  0  0  0  0
 38 39  2  0  0  0  0
 40 41  1  0  0  0  0
 41 42  2  0  0  0  0
 38 42  1  0  0  0  0
 39 37  1  0  0  0  0
 37 40  2  0  0  0  0
 30 43  1  0  0  0  0
 44 43  1  6  0  0  0
 45 46  1  0  0  0  0
 47 48  1  0  0  0  0
 45 48  1  0  0  0  0
 44 46  1  0  0  0  0
 44 47  1  0  0  0  0
 46 49  2  0  0  0  0
M  END
$$$$

  Mrv1823 04162023282D          

 49 51  0  0  1  0            999 V2000
    7.2679   -7.1475    0.0000 C   0  0  0  0  0  0  0  0  0  0  0  0
    7.6804   -6.4330    0.0000 O   0  0  0  0  0  0  0  0  0  0  0  0
    8.4874   -6.6045    0.0000 N   0  0  0  0  0  0  0  0  0  0  0  0
    8.5737   -7.4250    0.0000 C   0  0  0  0  0  0  0  0  0  0  0  0
    7.8200   -7.7606    0.0000 C   0  0  0  0  0  0  0  0  0  0  0  0
    6.4475   -7.2337    0.0000 C   0  0  0  0  0  0  0  0  0  0  0  0
    9.2881   -7.8375    0.0000 C   0  0  0  0  0  0  0  0  0  0  0  0
    9.2881   -8.6625    0.0000 O   0  0  0  0  0  0  0  0  0  0  0  0
   10.0026   -7.4250    0.0000 N   0  0  0  0  0  0  0  0  0  0  0  0
   10.7171   -7.8375    0.0000 C   0  0  1  0  0  0  0  0  0  0  0  0
   10.7171   -8.6625    0.0000 C   0  0  0  0  0  0  0  0  0  0  0  0
   11.4315   -7.4250    0.0000 C   0  0  0  0  0  0  0  0  0  0  0  0
   11.4315   -6.6000    0.0000 O   0  0  0  0  0  0  0  0  0  0  0  0
   12.1460   -7.8375    0.0000 N   0  0  0  0  0  0  0  0  0  0  0  0
   12.8605   -7.4250    0.0000 C   0  0  1  0  0  0  0  0  0  0  0  0
   12.8605   -6.6000    0.0000 C   0  0  0  0  0  0  0  0  0  0  0  0
   13.5749   -6.1875    0.0000 C   0  0  0  0  0  0  0  0  0  0  0  0
   12.1460   -6.1875    0.0000 C   0  0  0  0  0  0  0  0  0  0  0  0
   13.5749   -7.8375    0.0000 C   0  0  0  0  0  0  0  0  0  0  0  0
   13.5749   -8.6625    0.0000 O   0  0  0  0  0  0  0  0  0  0  0  0
   14.2894   -7.4250    0.0000 N   0  0  0  0  0  0  0  0  0  0  0  0
   15.0039   -7.8375    0.0000 C   0  0  2  0  0  0  0  0  0  0  0  0
   15.0039   -8.6625    0.0000 C   0  0  0  0  0  0  0  0  0  0  0  0
   15.7184   -9.0750    0.0000 C   0  0  0  0  0  0  0  0  0  0  0  0
   16.4328   -8.6625    0.0000 C   0  0  0  0  0  0  0  0  0  0  0  0
   15.7184   -9.9000    0.0000 C   0  0  0  0  0  0  0  0  0  0  0  0
   15.7184   -7.4250    0.0000 C   0  0  0  0  0  0  0  0  0  0  0  0
   15.7184   -6.6000    0.0000 O   0  0  0  0  0  0  0  0  0  0  0  0
   16.4328   -7.8375    0.0000 N   0  0  0  0  0  0  0  0  0  0  0  0
   17.1473   -7.4250    0.0000 C   0  0  1  0  0  0  0  0  0  0  0  0
   17.1473   -6.6000    0.0000 C   0  0  0  0  0  0  0  0  0  0  0  0
   17.8618   -6.1875    0.0000 C   0  0  0  0  0  0  0  0  0  0  0  0
   18.5762   -6.6000    0.0000 C   0  0  0  0  0  0  0  0  0  0  0  0
   18.5762   -7.4250    0.0000 O   0  0  0  0  0  0  0  0  0  0  0  0
   19.2907   -6.1875    0.0000 O   0  0  0  0  0  0  0  0  0  0  0  0
   19.2907   -5.3625    0.0000 C   0  0  0  0  0  0  0  0  0  0  0  0
   20.0052   -4.9500    0.0000 C   0  0  0  0  0  0  0  0  0  0  0  0
   20.7197   -3.7125    0.0000 C   0  0  0  0  0  0  0  0  0  0  0  0
   20.0052   -4.1250    0.0000 C   0  0  0  0  0  0  0  0  0  0  0  0
   20.7197   -5.3625    0.0000 C   0  0  0  0  0  0  0  0  0  0  0  0
   21.4341   -4.9500    0.0000 C   0  0  0  0  0  0  0  0  0  0  0  0
   21.4341   -4.1250    0.0000 C   0  0  0  0  0  0  0  0  0  0  0  0
   17.8618   -7.8375    0.0000 C   0  0  0  0  0  0  0  0  0  0  0  0
   17.8618   -8.6625    0.0000 C   0  0  1  0  0  0  0  0  0  0  0  0
   18.2743   -9.9320    0.0000 N   0  0  0  0  0  0  0  0  0  0  0  0
   18.5292   -9.1474    0.0000 C   0  0  0  0  0  0  0  0  0  0  0  0
   17.1943   -9.1474    0.0000 C   0  0  0  0  0  0  0  0  0  0  0  0
   17.4493   -9.9320    0.0000 C   0  0  0  0  0  0  0  0  0  0  0  0
   19.3138   -8.8925    0.0000 O   0  0  0  0  0  0  0  0  0  0  0  0
  1  2  1  0  0  0  0
  2  3  1  0  0  0  0
  3  4  2  0  0  0  0
  4  5  1  0  0  0  0
  1  5  2  0  0  0  0
  1  6  1  0  0  0  0
  4  7  1  0  0  0  0
  7  8  2  0  0  0  0
  7  9  1  0  0  0  0
 10  9  1  0  0  0  0
 10 11  1  6  0  0  0
 10 12  1  0  0  0  0
 12 13  2  0  0  0  0
 12 14  1  0  0  0  0
 15 14  1  1  0  0  0
 15 16  1  0  0  0  0
 16 17  1  0  0  0  0
 16 18  1  0  0  0  0
 15 19  1  0  0  0  0
 19 20  2  0  0  0  0
 19 21  1  0  0  0  0
 22 21  1  1  0  0  0
 22 23  1  0  0  0  0
 23 24  1  0  0  0  0
 24 25  1  0  0  0  0
 24 26  1  0  0  0  0
 22 27  1  0  0  0  0
 27 28  2  0  0  0  0
 27 29  1  0  0  0  0
 30 29  1  1  0  0  0
 30 31  1  0  0  0  0
 31 32  2  0  0  0  0
 32 33  1  0  0  0  0
 33 34  2  0  0  0  0
 33 35  1  0  0  0  0
 35 36  1  0  0  0  0
 36 37  1  0  0  0  0
 38 39  2  0  0  0  0
 40 41  1  0  0  0  0
 41 42  2  0  0  0  0
 38 42  1  0  0  0  0
 39 37  1  0  0  0  0
 37 40  2  0  0  0  0
 30 43  1  0  0  0  0
 44 43  1  1  0  0  0
 45 46  1  0  0  0  0
 47 48  1  0  0  0  0
 45 48  1  0  0  0  0
 44 46  1  0  0  0  0
 44 47  1  0  0  0  0
 46 49  2  0  0  0  0
M  END
$$$$

  Mrv1823 04162023282D          

 49 51  0  0  1  0            999 V2000
    7.2679   -7.1475    0.0000 C   0  0  0  0  0  0  0  0  0  0  0  0
    7.6804   -6.4330    0.0000 O   0  0  0  0  0  0  0  0  0  0  0  0
    8.4874   -6.6045    0.0000 N   0  0  0  0  0  0  0  0  0  0  0  0
    8.5737   -7.4250    0.0000 C   0  0  0  0  0  0  0  0  0  0  0  0
    7.8200   -7.7606    0.0000 C   0  0  0  0  0  0  0  0  0  0  0  0
    6.4475   -7.2337    0.0000 C   0  0  0  0  0  0  0  0  0  0  0  0
    9.2881   -7.8375    0.0000 C   0  0  0  0  0  0  0  0  0  0  0  0
    9.2881   -8.6625    0.0000 O   0  0  0  0  0  0  0  0  0  0  0  0
   10.0026   -7.4250    0.0000 N   0  0  0  0  0  0  0  0  0  0  0  0
   10.7171   -7.8375    0.0000 C   0  0  2  0  0  0  0  0  0  0  0  0
   10.7171   -8.6625    0.0000 C   0  0  0  0  0  0  0  0  0  0  0  0
   11.4315   -7.4250    0.0000 C   0  0  0  0  0  0  0  0  0  0  0  0
   11.4315   -6.6000    0.0000 O   0  0  0  0  0  0  0  0  0  0  0  0
   12.1460   -7.8375    0.0000 N   0  0  0  0  0  0  0  0  0  0  0  0
   12.8605   -7.4250    0.0000 C   0  0  1  0  0  0  0  0  0  0  0  0
   12.8605   -6.6000    0.0000 C   0  0  0  0  0  0  0  0  0  0  0  0
   13.5749   -6.1875    0.0000 C   0  0  0  0  0  0  0  0  0  0  0  0
   12.1460   -6.1875    0.0000 C   0  0  0  0  0  0  0  0  0  0  0  0
   13.5749   -7.8375    0.0000 C   0  0  0  0  0  0  0  0  0  0  0  0
   13.5749   -8.6625    0.0000 O   0  0  0  0  0  0  0  0  0  0  0  0
   14.2894   -7.4250    0.0000 N   0  0  0  0  0  0  0  0  0  0  0  0
   15.0039   -7.8375    0.0000 C   0  0  1  0  0  0  0  0  0  0  0  0
   15.0039   -8.6625    0.0000 C   0  0  0  0  0  0  0  0  0  0  0  0
   15.7184   -9.0750    0.0000 C   0  0  0  0  0  0  0  0  0  0  0  0
   16.4328   -8.6625    0.0000 C   0  0  0  0  0  0  0  0  0  0  0  0
   15.7184   -9.9000    0.0000 C   0  0  0  0  0  0  0  0  0  0  0  0
   15.7184   -7.4250    0.0000 C   0  0  0  0  0  0  0  0  0  0  0  0
   15.7184   -6.6000    0.0000 O   0  0  0  0  0  0  0  0  0  0  0  0
   16.4328   -7.8375    0.0000 N   0  0  0  0  0  0  0  0  0  0  0  0
   17.1473   -7.4250    0.0000 C   0  0  2  0  0  0  0  0  0  0  0  0
   17.1473   -6.6000    0.0000 C   0  0  0  0  0  0  0  0  0  0  0  0
   17.8618   -6.1875    0.0000 C   0  0  0  0  0  0  0  0  0  0  0  0
   18.5762   -6.6000    0.0000 C   0  0  0  0  0  0  0  0  0  0  0  0
   18.5762   -7.4250    0.0000 O   0  0  0  0  0  0  0  0  0  0  0  0
   19.2907   -6.1875    0.0000 O   0  0  0  0  0  0  0  0  0  0  0  0
   19.2907   -5.3625    0.0000 C   0  0  0  0  0  0  0  0  0  0  0  0
   20.0052   -4.9500    0.0000 C   0  0  0  0  0  0  0  0  0  0  0  0
   20.7197   -3.7125    0.0000 C   0  0  0  0  0  0  0  0  0  0  0  0
   20.0052   -4.1250    0.0000 C   0  0  0  0  0  0  0  0  0  0  0  0
   20.7197   -5.3625    0.0000 C   0  0  0  0  0  0  0  0  0  0  0  0
   21.4341   -4.9500    0.0000 C   0  0  0  0  0  0  0  0  0  0  0  0
   21.4341   -4.1250    0.0000 C   0  0  0  0  0  0  0  0  0  0  0  0
   17.8618   -7.8375    0.0000 C   0  0  0  0  0  0  0  0  0  0  0  0
   17.8618   -8.6625    0.0000 C   0  0  2  0  0  0  0  0  0  0  0  0
   18.2743   -9.9320    0.0000 N   0  0  0  0  0  0  0  0  0  0  0  0
   18.5292   -9.1474    0.0000 C   0  0  0  0  0  0  0  0  0  0  0  0
   17.1943   -9.1474    0.0000 C   0  0  0  0  0  0  0  0  0  0  0  0
   17.4493   -9.9320    0.0000 C   0  0  0  0  0  0  0  0  0  0  0  0
   19.3138   -8.8925    0.0000 O   0  0  0  0  0  0  0  0  0  0  0  0
  1  2  1  0  0  0  0
  2  3  1  0  0  0  0
  3  4  2  0  0  0  0
  4  5  1  0  0  0  0
  1  5  2  0  0  0  0
  1  6  1  0  0  0  0
  4  7  1  0  0  0  0
  7  8  2  0  0  0  0
  7  9  1  0  0  0  0
 10  9  1  0  0  0  0
 10 11  1  1  0  0  0
 10 12  1  0  0  0  0
 12 13  2  0  0  0  0
 12 14  1  0  0  0  0
 15 14  1  1  0  0  0
 15 16  1  0  0  0  0
 16 17  1  0  0  0  0
 16 18  1  0  0  0  0
 15 19  1  0  0  0  0
 19 20  2  0  0  0  0
 19 21  1  0  0  0  0
 22 21  1  6  0  0  0
 22 23  1  0  0  0  0
 23 24  1  0  0  0  0
 24 25  1  0  0  0  0
 24 26  1  0  0  0  0
 22 27  1  0  0  0  0
 27 28  2  0  0  0  0
 27 29  1  0  0  0  0
 30 29  1  6  0  0  0
 30 31  1  0  0  0  0
 31 32  2  0  0  0  0
 32 33  1  0  0  0  0
 33 34  2  0  0  0  0
 33 35  1  0  0  0  0
 35 36  1  0  0  0  0
 36 37  1  0  0  0  0
 38 39  2  0  0  0  0
 40 41  1  0  0  0  0
 41 42  2  0  0  0  0
 38 42  1  0  0  0  0
 39 37  1  0  0  0  0
 37 40  2  0  0  0  0
 30 43  1  0  0  0  0
 44 43  1  6  0  0  0
 45 46  1  0  0  0  0
 47 48  1  0  0  0  0
 45 48  1  0  0  0  0
 44 46  1  0  0  0  0
 44 47  1  0  0  0  0
 46 49  2  0  0  0  0
M  END
$$$$

  Mrv1823 04162023282D          

 49 51  0  0  1  0            999 V2000
    7.2679   -7.1475    0.0000 C   0  0  0  0  0  0  0  0  0  0  0  0
    7.6804   -6.4330    0.0000 O   0  0  0  0  0  0  0  0  0  0  0  0
    8.4874   -6.6045    0.0000 N   0  0  0  0  0  0  0  0  0  0  0  0
    8.5737   -7.4250    0.0000 C   0  0  0  0  0  0  0  0  0  0  0  0
    7.8200   -7.7606    0.0000 C   0  0  0  0  0  0  0  0  0  0  0  0
    6.4475   -7.2337    0.0000 C   0  0  0  0  0  0  0  0  0  0  0  0
    9.2881   -7.8375    0.0000 C   0  0  0  0  0  0  0  0  0  0  0  0
    9.2881   -8.6625    0.0000 O   0  0  0  0  0  0  0  0  0  0  0  0
   10.0026   -7.4250    0.0000 N   0  0  0  0  0  0  0  0  0  0  0  0
   10.7171   -7.8375    0.0000 C   0  0  2  0  0  0  0  0  0  0  0  0
   10.7171   -8.6625    0.0000 C   0  0  0  0  0  0  0  0  0  0  0  0
   11.4315   -7.4250    0.0000 C   0  0  0  0  0  0  0  0  0  0  0  0
   11.4315   -6.6000    0.0000 O   0  0  0  0  0  0  0  0  0  0  0  0
   12.1460   -7.8375    0.0000 N   0  0  0  0  0  0  0  0  0  0  0  0
   12.8605   -7.4250    0.0000 C   0  0  1  0  0  0  0  0  0  0  0  0
   12.8605   -6.6000    0.0000 C   0  0  0  0  0  0  0  0  0  0  0  0
   13.5749   -6.1875    0.0000 C   0  0  0  0  0  0  0  0  0  0  0  0
   12.1460   -6.1875    0.0000 C   0  0  0  0  0  0  0  0  0  0  0  0
   13.5749   -7.8375    0.0000 C   0  0  0  0  0  0  0  0  0  0  0  0
   13.5749   -8.6625    0.0000 O   0  0  0  0  0  0  0  0  0  0  0  0
   14.2894   -7.4250    0.0000 N   0  0  0  0  0  0  0  0  0  0  0  0
   15.0039   -7.8375    0.0000 C   0  0  1  0  0  0  0  0  0  0  0  0
   15.0039   -8.6625    0.0000 C   0  0  0  0  0  0  0  0  0  0  0  0
   15.7184   -9.0750    0.0000 C   0  0  0  0  0  0  0  0  0  0  0  0
   16.4328   -8.6625    0.0000 C   0  0  0  0  0  0  0  0  0  0  0  0
   15.7184   -9.9000    0.0000 C   0  0  0  0  0  0  0  0  0  0  0  0
   15.7184   -7.4250    0.0000 C   0  0  0  0  0  0  0  0  0  0  0  0
   15.7184   -6.6000    0.0000 O   0  0  0  0  0  0  0  0  0  0  0  0
   16.4328   -7.8375    0.0000 N   0  0  0  0  0  0  0  0  0  0  0  0
   17.1473   -7.4250    0.0000 C   0  0  2  0  0  0  0  0  0  0  0  0
   17.1473   -6.6000    0.0000 C   0  0  0  0  0  0  0  0  0  0  0  0
   17.8618   -6.1875    0.0000 C   0  0  0  0  0  0  0  0  0  0  0  0
   18.5762   -6.6000    0.0000 C   0  0  0  0  0  0  0  0  0  0  0  0
   18.5762   -7.4250    0.0000 O   0  0  0  0  0  0  0  0  0  0  0  0
   19.2907   -6.1875    0.0000 O   0  0  0  0  0  0  0  0  0  0  0  0
   19.2907   -5.3625    0.0000 C   0  0  0  0  0  0  0  0  0  0  0  0
   20.0052   -4.9500    0.0000 C   0  0  0  0  0  0  0  0  0  0  0  0
   20.7197   -3.7125    0.0000 C   0  0  0  0  0  0  0  0  0  0  0  0
   20.0052   -4.1250    0.0000 C   0  0  0  0  0  0  0  0  0  0  0  0
   20.7197   -5.3625    0.0000 C   0  0  0  0  0  0  0  0  0  0  0  0
   21.4341   -4.9500    0.0000 C   0  0  0  0  0  0  0  0  0  0  0  0
   21.4341   -4.1250    0.0000 C   0  0  0  0  0  0  0  0  0  0  0  0
   17.8618   -7.8375    0.0000 C   0  0  0  0  0  0  0  0  0  0  0  0
   17.8618   -8.6625    0.0000 C   0  0  1  0  0  0  0  0  0  0  0  0
   18.2743   -9.9320    0.0000 N   0  0  0  0  0  0  0  0  0  0  0  0
   18.5292   -9.1474    0.0000 C   0  0  0  0  0  0  0  0  0  0  0  0
   17.1943   -9.1474    0.0000 C   0  0  0  0  0  0  0  0  0  0  0  0
   17.4493   -9.9320    0.0000 C   0  0  0  0  0  0  0  0  0  0  0  0
   19.3138   -8.8925    0.0000 O   0  0  0  0  0  0  0  0  0  0  0  0
  1  2  1  0  0  0  0
  2  3  1  0  0  0  0
  3  4  2  0  0  0  0
  4  5  1  0  0  0  0
  1  5  2  0  0  0  0
  1  6  1  0  0  0  0
  4  7  1  0  0  0  0
  7  8  2  0  0  0  0
  7  9  1  0  0  0  0
 10  9  1  0  0  0  0
 10 11  1  1  0  0  0
 10 12  1  0  0  0  0
 12 13  2  0  0  0  0
 12 14  1  0  0  0  0
 15 14  1  1  0  0  0
 15 16  1  0  0  0  0
 16 17  1  0  0  0  0
 16 18  1  0  0  0  0
 15 19  1  0  0  0  0
 19 20  2  0  0  0  0
 19 21  1  0  0  0  0
 22 21  1  6  0  0  0
 22 23  1  0  0  0  0
 23 24  1  0  0  0  0
 24 25  1  0  0  0  0
 24 26  1  0  0  0  0
 22 27  1  0  0  0  0
 27 28  2  0  0  0  0
 27 29  1  0  0  0  0
 30 29  1  6  0  0  0
 30 31  1  0  0  0  0
 31 32  2  0  0  0  0
 32 33  1  0  0  0  0
 33 34  2  0  0  0  0
 33 35  1  0  0  0  0
 35 36  1  0  0  0  0
 36 37  1  0  0  0  0
 38 39  2  0  0  0  0
 40 41  1  0  0  0  0
 41 42  2  0  0  0  0
 38 42  1  0  0  0  0
 39 37  1  0  0  0  0
 37 40  2  0  0  0  0
 30 43  1  0  0  0  0
 44 43  1  1  0  0  0
 45 46  1  0  0  0  0
 47 48  1  0  0  0  0
 45 48  1  0  0  0  0
 44 46  1  0  0  0  0
 44 47  1  0  0  0  0
 46 49  2  0  0  0  0
M  END
$$$$

  Mrv1823 04162023282D          

 49 51  0  0  1  0            999 V2000
    7.2679   -7.1475    0.0000 C   0  0  0  0  0  0  0  0  0  0  0  0
    7.6804   -6.4330    0.0000 O   0  0  0  0  0  0  0  0  0  0  0  0
    8.4874   -6.6045    0.0000 N   0  0  0  0  0  0  0  0  0  0  0  0
    8.5737   -7.4250    0.0000 C   0  0  0  0  0  0  0  0  0  0  0  0
    7.8200   -7.7606    0.0000 C   0  0  0  0  0  0  0  0  0  0  0  0
    6.4475   -7.2337    0.0000 C   0  0  0  0  0  0  0  0  0  0  0  0
    9.2881   -7.8375    0.0000 C   0  0  0  0  0  0  0  0  0  0  0  0
    9.2881   -8.6625    0.0000 O   0  0  0  0  0  0  0  0  0  0  0  0
   10.0026   -7.4250    0.0000 N   0  0  0  0  0  0  0  0  0  0  0  0
   10.7171   -7.8375    0.0000 C   0  0  2  0  0  0  0  0  0  0  0  0
   10.7171   -8.6625    0.0000 C   0  0  0  0  0  0  0  0  0  0  0  0
   11.4315   -7.4250    0.0000 C   0  0  0  0  0  0  0  0  0  0  0  0
   11.4315   -6.6000    0.0000 O   0  0  0  0  0  0  0  0  0  0  0  0
   12.1460   -7.8375    0.0000 N   0  0  0  0  0  0  0  0  0  0  0  0
   12.8605   -7.4250    0.0000 C   0  0  1  0  0  0  0  0  0  0  0  0
   12.8605   -6.6000    0.0000 C   0  0  0  0  0  0  0  0  0  0  0  0
   13.5749   -6.1875    0.0000 C   0  0  0  0  0  0  0  0  0  0  0  0
   12.1460   -6.1875    0.0000 C   0  0  0  0  0  0  0  0  0  0  0  0
   13.5749   -7.8375    0.0000 C   0  0  0  0  0  0  0  0  0  0  0  0
   13.5749   -8.6625    0.0000 O   0  0  0  0  0  0  0  0  0  0  0  0
   14.2894   -7.4250    0.0000 N   0  0  0  0  0  0  0  0  0  0  0  0
   15.0039   -7.8375    0.0000 C   0  0  1  0  0  0  0  0  0  0  0  0
   15.0039   -8.6625    0.0000 C   0  0  0  0  0  0  0  0  0  0  0  0
   15.7184   -9.0750    0.0000 C   0  0  0  0  0  0  0  0  0  0  0  0
   16.4328   -8.6625    0.0000 C   0  0  0  0  0  0  0  0  0  0  0  0
   15.7184   -9.9000    0.0000 C   0  0  0  0  0  0  0  0  0  0  0  0
   15.7184   -7.4250    0.0000 C   0  0  0  0  0  0  0  0  0  0  0  0
   15.7184   -6.6000    0.0000 O   0  0  0  0  0  0  0  0  0  0  0  0
   16.4328   -7.8375    0.0000 N   0  0  0  0  0  0  0  0  0  0  0  0
   17.1473   -7.4250    0.0000 C   0  0  1  0  0  0  0  0  0  0  0  0
   17.1473   -6.6000    0.0000 C   0  0  0  0  0  0  0  0  0  0  0  0
   17.8618   -6.1875    0.0000 C   0  0  0  0  0  0  0  0  0  0  0  0
   18.5762   -6.6000    0.0000 C   0  0  0  0  0  0  0  0  0  0  0  0
   18.5762   -7.4250    0.0000 O   0  0  0  0  0  0  0  0  0  0  0  0
   19.2907   -6.1875    0.0000 O   0  0  0  0  0  0  0  0  0  0  0  0
   19.2907   -5.3625    0.0000 C   0  0  0  0  0  0  0  0  0  0  0  0
   20.0052   -4.9500    0.0000 C   0  0  0  0  0  0  0  0  0  0  0  0
   20.7197   -3.7125    0.0000 C   0  0  0  0  0  0  0  0  0  0  0  0
   20.0052   -4.1250    0.0000 C   0  0  0  0  0  0  0  0  0  0  0  0
   20.7197   -5.3625    0.0000 C   0  0  0  0  0  0  0  0  0  0  0  0
   21.4341   -4.9500    0.0000 C   0  0  0  0  0  0  0  0  0  0  0  0
   21.4341   -4.1250    0.0000 C   0  0  0  0  0  0  0  0  0  0  0  0
   17.8618   -7.8375    0.0000 C   0  0  0  0  0  0  0  0  0  0  0  0
   17.8618   -8.6625    0.0000 C   0  0  2  0  0  0  0  0  0  0  0  0
   18.2743   -9.9320    0.0000 N   0  0  0  0  0  0  0  0  0  0  0  0
   18.5292   -9.1474    0.0000 C   0  0  0  0  0  0  0  0  0  0  0  0
   17.1943   -9.1474    0.0000 C   0  0  0  0  0  0  0  0  0  0  0  0
   17.4493   -9.9320    0.0000 C   0  0  0  0  0  0  0  0  0  0  0  0
   19.3138   -8.8925    0.0000 O   0  0  0  0  0  0  0  0  0  0  0  0
  1  2  1  0  0  0  0
  2  3  1  0  0  0  0
  3  4  2  0  0  0  0
  4  5  1  0  0  0  0
  1  5  2  0  0  0  0
  1  6  1  0  0  0  0
  4  7  1  0  0  0  0
  7  8  2  0  0  0  0
  7  9  1  0  0  0  0
 10  9  1  0  0  0  0
 10 11  1  1  0  0  0
 10 12  1  0  0  0  0
 12 13  2  0  0  0  0
 12 14  1  0  0  0  0
 15 14  1  1  0  0  0
 15 16  1  0  0  0  0
 16 17  1  0  0  0  0
 16 18  1  0  0  0  0
 15 19  1  0  0  0  0
 19 20  2  0  0  0  0
 19 21  1  0  0  0  0
 22 21  1  6  0  0  0
 22 23  1  0  0  0  0
 23 24  1  0  0  0  0
 24 25  1  0  0  0  0
 24 26  1  0  0  0  0
 22 27  1  0  0  0  0
 27 28  2  0  0  0  0
 27 29  1  0  0  0  0
 30 29  1  1  0  0  0
 30 31  1  0  0  0  0
 31 32  2  0  0  0  0
 32 33  1  0  0  0  0
 33 34  2  0  0  0  0
 33 35  1  0  0  0  0
 35 36  1  0  0  0  0
 36 37  1  0  0  0  0
 38 39  2  0  0  0  0
 40 41  1  0  0  0  0
 41 42  2  0  0  0  0
 38 42  1  0  0  0  0
 39 37  1  0  0  0  0
 37 40  2  0  0  0  0
 30 43  1  0  0  0  0
 44 43  1  6  0  0  0
 45 46  1  0  0  0  0
 47 48  1  0  0  0  0
 45 48  1  0  0  0  0
 44 46  1  0  0  0  0
 44 47  1  0  0  0  0
 46 49  2  0  0  0  0
M  END
$$$$

  Mrv1823 04162023282D          

 49 51  0  0  1  0            999 V2000
    7.2679   -7.1475    0.0000 C   0  0  0  0  0  0  0  0  0  0  0  0
    7.6804   -6.4330    0.0000 O   0  0  0  0  0  0  0  0  0  0  0  0
    8.4874   -6.6045    0.0000 N   0  0  0  0  0  0  0  0  0  0  0  0
    8.5737   -7.4250    0.0000 C   0  0  0  0  0  0  0  0  0  0  0  0
    7.8200   -7.7606    0.0000 C   0  0  0  0  0  0  0  0  0  0  0  0
    6.4475   -7.2337    0.0000 C   0  0  0  0  0  0  0  0  0  0  0  0
    9.2881   -7.8375    0.0000 C   0  0  0  0  0  0  0  0  0  0  0  0
    9.2881   -8.6625    0.0000 O   0  0  0  0  0  0  0  0  0  0  0  0
   10.0026   -7.4250    0.0000 N   0  0  0  0  0  0  0  0  0  0  0  0
   10.7171   -7.8375    0.0000 C   0  0  2  0  0  0  0  0  0  0  0  0
   10.7171   -8.6625    0.0000 C   0  0  0  0  0  0  0  0  0  0  0  0
   11.4315   -7.4250    0.0000 C   0  0  0  0  0  0  0  0  0  0  0  0
   11.4315   -6.6000    0.0000 O   0  0  0  0  0  0  0  0  0  0  0  0
   12.1460   -7.8375    0.0000 N   0  0  0  0  0  0  0  0  0  0  0  0
   12.8605   -7.4250    0.0000 C   0  0  1  0  0  0  0  0  0  0  0  0
   12.8605   -6.6000    0.0000 C   0  0  0  0  0  0  0  0  0  0  0  0
   13.5749   -6.1875    0.0000 C   0  0  0  0  0  0  0  0  0  0  0  0
   12.1460   -6.1875    0.0000 C   0  0  0  0  0  0  0  0  0  0  0  0
   13.5749   -7.8375    0.0000 C   0  0  0  0  0  0  0  0  0  0  0  0
   13.5749   -8.6625    0.0000 O   0  0  0  0  0  0  0  0  0  0  0  0
   14.2894   -7.4250    0.0000 N   0  0  0  0  0  0  0  0  0  0  0  0
   15.0039   -7.8375    0.0000 C   0  0  1  0  0  0  0  0  0  0  0  0
   15.0039   -8.6625    0.0000 C   0  0  0  0  0  0  0  0  0  0  0  0
   15.7184   -9.0750    0.0000 C   0  0  0  0  0  0  0  0  0  0  0  0
   16.4328   -8.6625    0.0000 C   0  0  0  0  0  0  0  0  0  0  0  0
   15.7184   -9.9000    0.0000 C   0  0  0  0  0  0  0  0  0  0  0  0
   15.7184   -7.4250    0.0000 C   0  0  0  0  0  0  0  0  0  0  0  0
   15.7184   -6.6000    0.0000 O   0  0  0  0  0  0  0  0  0  0  0  0
   16.4328   -7.8375    0.0000 N   0  0  0  0  0  0  0  0  0  0  0  0
   17.1473   -7.4250    0.0000 C   0  0  1  0  0  0  0  0  0  0  0  0
   17.1473   -6.6000    0.0000 C   0  0  0  0  0  0  0  0  0  0  0  0
   17.8618   -6.1875    0.0000 C   0  0  0  0  0  0  0  0  0  0  0  0
   18.5762   -6.6000    0.0000 C   0  0  0  0  0  0  0  0  0  0  0  0
   18.5762   -7.4250    0.0000 O   0  0  0  0  0  0  0  0  0  0  0  0
   19.2907   -6.1875    0.0000 O   0  0  0  0  0  0  0  0  0  0  0  0
   19.2907   -5.3625    0.0000 C   0  0  0  0  0  0  0  0  0  0  0  0
   20.0052   -4.9500    0.0000 C   0  0  0  0  0  0  0  0  0  0  0  0
   20.7197   -3.7125    0.0000 C   0  0  0  0  0  0  0  0  0  0  0  0
   20.0052   -4.1250    0.0000 C   0  0  0  0  0  0  0  0  0  0  0  0
   20.7197   -5.3625    0.0000 C   0  0  0  0  0  0  0  0  0  0  0  0
   21.4341   -4.9500    0.0000 C   0  0  0  0  0  0  0  0  0  0  0  0
   21.4341   -4.1250    0.0000 C   0  0  0  0  0  0  0  0  0  0  0  0
   17.8618   -7.8375    0.0000 C   0  0  0  0  0  0  0  0  0  0  0  0
   17.8618   -8.6625    0.0000 C   0  0  1  0  0  0  0  0  0  0  0  0
   18.2743   -9.9320    0.0000 N   0  0  0  0  0  0  0  0  0  0  0  0
   18.5292   -9.1474    0.0000 C   0  0  0  0  0  0  0  0  0  0  0  0
   17.1943   -9.1474    0.0000 C   0  0  0  0  0  0  0  0  0  0  0  0
   17.4493   -9.9320    0.0000 C   0  0  0  0  0  0  0  0  0  0  0  0
   19.3138   -8.8925    0.0000 O   0  0  0  0  0  0  0  0  0  0  0  0
  1  2  1  0  0  0  0
  2  3  1  0  0  0  0
  3  4  2  0  0  0  0
  4  5  1  0  0  0  0
  1  5  2  0  0  0  0
  1  6  1  0  0  0  0
  4  7  1  0  0  0  0
  7  8  2  0  0  0  0
  7  9  1  0  0  0  0
 10  9  1  0  0  0  0
 10 11  1  1  0  0  0
 10 12  1  0  0  0  0
 12 13  2  0  0  0  0
 12 14  1  0  0  0  0
 15 14  1  1  0  0  0
 15 16  1  0  0  0  0
 16 17  1  0  0  0  0
 16 18  1  0  0  0  0
 15 19  1  0  0  0  0
 19 20  2  0  0  0  0
 19 21  1  0  0  0  0
 22 21  1  6  0  0  0
 22 23  1  0  0  0  0
 23 24  1  0  0  0  0
 24 25  1  0  0  0  0
 24 26  1  0  0  0  0
 22 27  1  0  0  0  0
 27 28  2  0  0  0  0
 27 29  1  0  0  0  0
 30 29  1  1  0  0  0
 30 31  1  0  0  0  0
 31 32  2  0  0  0  0
 32 33  1  0  0  0  0
 33 34  2  0  0  0  0
 33 35  1  0  0  0  0
 35 36  1  0  0  0  0
 36 37  1  0  0  0  0
 38 39  2  0  0  0  0
 40 41  1  0  0  0  0
 41 42  2  0  0  0  0
 38 42  1  0  0  0  0
 39 37  1  0  0  0  0
 37 40  2  0  0  0  0
 30 43  1  0  0  0  0
 44 43  1  1  0  0  0
 45 46  1  0  0  0  0
 47 48  1  0  0  0  0
 45 48  1  0  0  0  0
 44 46  1  0  0  0  0
 44 47  1  0  0  0  0
 46 49  2  0  0  0  0
M  END
$$$$

  Mrv1823 04162023282D          

 49 51  0  0  1  0            999 V2000
    7.2679   -7.1475    0.0000 C   0  0  0  0  0  0  0  0  0  0  0  0
    7.6804   -6.4330    0.0000 O   0  0  0  0  0  0  0  0  0  0  0  0
    8.4874   -6.6045    0.0000 N   0  0  0  0  0  0  0  0  0  0  0  0
    8.5737   -7.4250    0.0000 C   0  0  0  0  0  0  0  0  0  0  0  0
    7.8200   -7.7606    0.0000 C   0  0  0  0  0  0  0  0  0  0  0  0
    6.4475   -7.2337    0.0000 C   0  0  0  0  0  0  0  0  0  0  0  0
    9.2881   -7.8375    0.0000 C   0  0  0  0  0  0  0  0  0  0  0  0
    9.2881   -8.6625    0.0000 O   0  0  0  0  0  0  0  0  0  0  0  0
   10.0026   -7.4250    0.0000 N   0  0  0  0  0  0  0  0  0  0  0  0
   10.7171   -7.8375    0.0000 C   0  0  1  0  0  0  0  0  0  0  0  0
   10.7171   -8.6625    0.0000 C   0  0  0  0  0  0  0  0  0  0  0  0
   11.4315   -7.4250    0.0000 C   0  0  0  0  0  0  0  0  0  0  0  0
   11.4315   -6.6000    0.0000 O   0  0  0  0  0  0  0  0  0  0  0  0
   12.1460   -7.8375    0.0000 N   0  0  0  0  0  0  0  0  0  0  0  0
   12.8605   -7.4250    0.0000 C   0  0  1  0  0  0  0  0  0  0  0  0
   12.8605   -6.6000    0.0000 C   0  0  0  0  0  0  0  0  0  0  0  0
   13.5749   -6.1875    0.0000 C   0  0  0  0  0  0  0  0  0  0  0  0
   12.1460   -6.1875    0.0000 C   0  0  0  0  0  0  0  0  0  0  0  0
   13.5749   -7.8375    0.0000 C   0  0  0  0  0  0  0  0  0  0  0  0
   13.5749   -8.6625    0.0000 O   0  0  0  0  0  0  0  0  0  0  0  0
   14.2894   -7.4250    0.0000 N   0  0  0  0  0  0  0  0  0  0  0  0
   15.0039   -7.8375    0.0000 C   0  0  1  0  0  0  0  0  0  0  0  0
   15.0039   -8.6625    0.0000 C   0  0  0  0  0  0  0  0  0  0  0  0
   15.7184   -9.0750    0.0000 C   0  0  0  0  0  0  0  0  0  0  0  0
   16.4328   -8.6625    0.0000 C   0  0  0  0  0  0  0  0  0  0  0  0
   15.7184   -9.9000    0.0000 C   0  0  0  0  0  0  0  0  0  0  0  0
   15.7184   -7.4250    0.0000 C   0  0  0  0  0  0  0  0  0  0  0  0
   15.7184   -6.6000    0.0000 O   0  0  0  0  0  0  0  0  0  0  0  0
   16.4328   -7.8375    0.0000 N   0  0  0  0  0  0  0  0  0  0  0  0
   17.1473   -7.4250    0.0000 C   0  0  2  0  0  0  0  0  0  0  0  0
   17.1473   -6.6000    0.0000 C   0  0  0  0  0  0  0  0  0  0  0  0
   17.8618   -6.1875    0.0000 C   0  0  0  0  0  0  0  0  0  0  0  0
   18.5762   -6.6000    0.0000 C   0  0  0  0  0  0  0  0  0  0  0  0
   18.5762   -7.4250    0.0000 O   0  0  0  0  0  0  0  0  0  0  0  0
   19.2907   -6.1875    0.0000 O   0  0  0  0  0  0  0  0  0  0  0  0
   19.2907   -5.3625    0.0000 C   0  0  0  0  0  0  0  0  0  0  0  0
   20.0052   -4.9500    0.0000 C   0  0  0  0  0  0  0  0  0  0  0  0
   20.7197   -3.7125    0.0000 C   0  0  0  0  0  0  0  0  0  0  0  0
   20.0052   -4.1250    0.0000 C   0  0  0  0  0  0  0  0  0  0  0  0
   20.7197   -5.3625    0.0000 C   0  0  0  0  0  0  0  0  0  0  0  0
   21.4341   -4.9500    0.0000 C   0  0  0  0  0  0  0  0  0  0  0  0
   21.4341   -4.1250    0.0000 C   0  0  0  0  0  0  0  0  0  0  0  0
   17.8618   -7.8375    0.0000 C   0  0  0  0  0  0  0  0  0  0  0  0
   17.8618   -8.6625    0.0000 C   0  0  2  0  0  0  0  0  0  0  0  0
   18.2743   -9.9320    0.0000 N   0  0  0  0  0  0  0  0  0  0  0  0
   18.5292   -9.1474    0.0000 C   0  0  0  0  0  0  0  0  0  0  0  0
   17.1943   -9.1474    0.0000 C   0  0  0  0  0  0  0  0  0  0  0  0
   17.4493   -9.9320    0.0000 C   0  0  0  0  0  0  0  0  0  0  0  0
   19.3138   -8.8925    0.0000 O   0  0  0  0  0  0  0  0  0  0  0  0
  1  2  1  0  0  0  0
  2  3  1  0  0  0  0
  3  4  2  0  0  0  0
  4  5  1  0  0  0  0
  1  5  2  0  0  0  0
  1  6  1  0  0  0  0
  4  7  1  0  0  0  0
  7  8  2  0  0  0  0
  7  9  1  0  0  0  0
 10  9  1  0  0  0  0
 10 11  1  6  0  0  0
 10 12  1  0  0  0  0
 12 13  2  0  0  0  0
 12 14  1  0  0  0  0
 15 14  1  1  0  0  0
 15 16  1  0  0  0  0
 16 17  1  0  0  0  0
 16 18  1  0  0  0  0
 15 19  1  0  0  0  0
 19 20  2  0  0  0  0
 19 21  1  0  0  0  0
 22 21  1  6  0  0  0
 22 23  1  0  0  0  0
 23 24  1  0  0  0  0
 24 25  1  0  0  0  0
 24 26  1  0  0  0  0
 22 27  1  0  0  0  0
 27 28  2  0  0  0  0
 27 29  1  0  0  0  0
 30 29  1  6  0  0  0
 30 31  1  0  0  0  0
 31 32  2  0  0  0  0
 32 33  1  0  0  0  0
 33 34  2  0  0  0  0
 33 35  1  0  0  0  0
 35 36  1  0  0  0  0
 36 37  1  0  0  0  0
 38 39  2  0  0  0  0
 40 41  1  0  0  0  0
 41 42  2  0  0  0  0
 38 42  1  0  0  0  0
 39 37  1  0  0  0  0
 37 40  2  0  0  0  0
 30 43  1  0  0  0  0
 44 43  1  6  0  0  0
 45 46  1  0  0  0  0
 47 48  1  0  0  0  0
 45 48  1  0  0  0  0
 44 46  1  0  0  0  0
 44 47  1  0  0  0  0
 46 49  2  0  0  0  0
M  END
$$$$

  Mrv1823 04162023282D          

 49 51  0  0  1  0            999 V2000
    7.2679   -7.1475    0.0000 C   0  0  0  0  0  0  0  0  0  0  0  0
    7.6804   -6.4330    0.0000 O   0  0  0  0  0  0  0  0  0  0  0  0
    8.4874   -6.6045    0.0000 N   0  0  0  0  0  0  0  0  0  0  0  0
    8.5737   -7.4250    0.0000 C   0  0  0  0  0  0  0  0  0  0  0  0
    7.8200   -7.7606    0.0000 C   0  0  0  0  0  0  0  0  0  0  0  0
    6.4475   -7.2337    0.0000 C   0  0  0  0  0  0  0  0  0  0  0  0
    9.2881   -7.8375    0.0000 C   0  0  0  0  0  0  0  0  0  0  0  0
    9.2881   -8.6625    0.0000 O   0  0  0  0  0  0  0  0  0  0  0  0
   10.0026   -7.4250    0.0000 N   0  0  0  0  0  0  0  0  0  0  0  0
   10.7171   -7.8375    0.0000 C   0  0  1  0  0  0  0  0  0  0  0  0
   10.7171   -8.6625    0.0000 C   0  0  0  0  0  0  0  0  0  0  0  0
   11.4315   -7.4250    0.0000 C   0  0  0  0  0  0  0  0  0  0  0  0
   11.4315   -6.6000    0.0000 O   0  0  0  0  0  0  0  0  0  0  0  0
   12.1460   -7.8375    0.0000 N   0  0  0  0  0  0  0  0  0  0  0  0
   12.8605   -7.4250    0.0000 C   0  0  1  0  0  0  0  0  0  0  0  0
   12.8605   -6.6000    0.0000 C   0  0  0  0  0  0  0  0  0  0  0  0
   13.5749   -6.1875    0.0000 C   0  0  0  0  0  0  0  0  0  0  0  0
   12.1460   -6.1875    0.0000 C   0  0  0  0  0  0  0  0  0  0  0  0
   13.5749   -7.8375    0.0000 C   0  0  0  0  0  0  0  0  0  0  0  0
   13.5749   -8.6625    0.0000 O   0  0  0  0  0  0  0  0  0  0  0  0
   14.2894   -7.4250    0.0000 N   0  0  0  0  0  0  0  0  0  0  0  0
   15.0039   -7.8375    0.0000 C   0  0  1  0  0  0  0  0  0  0  0  0
   15.0039   -8.6625    0.0000 C   0  0  0  0  0  0  0  0  0  0  0  0
   15.7184   -9.0750    0.0000 C   0  0  0  0  0  0  0  0  0  0  0  0
   16.4328   -8.6625    0.0000 C   0  0  0  0  0  0  0  0  0  0  0  0
   15.7184   -9.9000    0.0000 C   0  0  0  0  0  0  0  0  0  0  0  0
   15.7184   -7.4250    0.0000 C   0  0  0  0  0  0  0  0  0  0  0  0
   15.7184   -6.6000    0.0000 O   0  0  0  0  0  0  0  0  0  0  0  0
   16.4328   -7.8375    0.0000 N   0  0  0  0  0  0  0  0  0  0  0  0
   17.1473   -7.4250    0.0000 C   0  0  2  0  0  0  0  0  0  0  0  0
   17.1473   -6.6000    0.0000 C   0  0  0  0  0  0  0  0  0  0  0  0
   17.8618   -6.1875    0.0000 C   0  0  0  0  0  0  0  0  0  0  0  0
   18.5762   -6.6000    0.0000 C   0  0  0  0  0  0  0  0  0  0  0  0
   18.5762   -7.4250    0.0000 O   0  0  0  0  0  0  0  0  0  0  0  0
   19.2907   -6.1875    0.0000 O   0  0  0  0  0  0  0  0  0  0  0  0
   19.2907   -5.3625    0.0000 C   0  0  0  0  0  0  0  0  0  0  0  0
   20.0052   -4.9500    0.0000 C   0  0  0  0  0  0  0  0  0  0  0  0
   20.7197   -3.7125    0.0000 C   0  0  0  0  0  0  0  0  0  0  0  0
   20.0052   -4.1250    0.0000 C   0  0  0  0  0  0  0  0  0  0  0  0
   20.7197   -5.3625    0.0000 C   0  0  0  0  0  0  0  0  0  0  0  0
   21.4341   -4.9500    0.0000 C   0  0  0  0  0  0  0  0  0  0  0  0
   21.4341   -4.1250    0.0000 C   0  0  0  0  0  0  0  0  0  0  0  0
   17.8618   -7.8375    0.0000 C   0  0  0  0  0  0  0  0  0  0  0  0
   17.8618   -8.6625    0.0000 C   0  0  1  0  0  0  0  0  0  0  0  0
   18.2743   -9.9320    0.0000 N   0  0  0  0  0  0  0  0  0  0  0  0
   18.5292   -9.1474    0.0000 C   0  0  0  0  0  0  0  0  0  0  0  0
   17.1943   -9.1474    0.0000 C   0  0  0  0  0  0  0  0  0  0  0  0
   17.4493   -9.9320    0.0000 C   0  0  0  0  0  0  0  0  0  0  0  0
   19.3138   -8.8925    0.0000 O   0  0  0  0  0  0  0  0  0  0  0  0
  1  2  1  0  0  0  0
  2  3  1  0  0  0  0
  3  4  2  0  0  0  0
  4  5  1  0  0  0  0
  1  5  2  0  0  0  0
  1  6  1  0  0  0  0
  4  7  1  0  0  0  0
  7  8  2  0  0  0  0
  7  9  1  0  0  0  0
 10  9  1  0  0  0  0
 10 11  1  6  0  0  0
 10 12  1  0  0  0  0
 12 13  2  0  0  0  0
 12 14  1  0  0  0  0
 15 14  1  1  0  0  0
 15 16  1  0  0  0  0
 16 17  1  0  0  0  0
 16 18  1  0  0  0  0
 15 19  1  0  0  0  0
 19 20  2  0  0  0  0
 19 21  1  0  0  0  0
 22 21  1  6  0  0  0
 22 23  1  0  0  0  0
 23 24  1  0  0  0  0
 24 25  1  0  0  0  0
 24 26  1  0  0  0  0
 22 27  1  0  0  0  0
 27 28  2  0  0  0  0
 27 29  1  0  0  0  0
 30 29  1  6  0  0  0
 30 31  1  0  0  0  0
 31 32  2  0  0  0  0
 32 33  1  0  0  0  0
 33 34  2  0  0  0  0
 33 35  1  0  0  0  0
 35 36  1  0  0  0  0
 36 37  1  0  0  0  0
 38 39  2  0  0  0  0
 40 41  1  0  0  0  0
 41 42  2  0  0  0  0
 38 42  1  0  0  0  0
 39 37  1  0  0  0  0
 37 40  2  0  0  0  0
 30 43  1  0  0  0  0
 44 43  1  1  0  0  0
 45 46  1  0  0  0  0
 47 48  1  0  0  0  0
 45 48  1  0  0  0  0
 44 46  1  0  0  0  0
 44 47  1  0  0  0  0
 46 49  2  0  0  0  0
M  END
$$$$

  Mrv1823 04162023282D          

 49 51  0  0  1  0            999 V2000
    7.2679   -7.1475    0.0000 C   0  0  0  0  0  0  0  0  0  0  0  0
    7.6804   -6.4330    0.0000 O   0  0  0  0  0  0  0  0  0  0  0  0
    8.4874   -6.6045    0.0000 N   0  0  0  0  0  0  0  0  0  0  0  0
    8.5737   -7.4250    0.0000 C   0  0  0  0  0  0  0  0  0  0  0  0
    7.8200   -7.7606    0.0000 C   0  0  0  0  0  0  0  0  0  0  0  0
    6.4475   -7.2337    0.0000 C   0  0  0  0  0  0  0  0  0  0  0  0
    9.2881   -7.8375    0.0000 C   0  0  0  0  0  0  0  0  0  0  0  0
    9.2881   -8.6625    0.0000 O   0  0  0  0  0  0  0  0  0  0  0  0
   10.0026   -7.4250    0.0000 N   0  0  0  0  0  0  0  0  0  0  0  0
   10.7171   -7.8375    0.0000 C   0  0  1  0  0  0  0  0  0  0  0  0
   10.7171   -8.6625    0.0000 C   0  0  0  0  0  0  0  0  0  0  0  0
   11.4315   -7.4250    0.0000 C   0  0  0  0  0  0  0  0  0  0  0  0
   11.4315   -6.6000    0.0000 O   0  0  0  0  0  0  0  0  0  0  0  0
   12.1460   -7.8375    0.0000 N   0  0  0  0  0  0  0  0  0  0  0  0
   12.8605   -7.4250    0.0000 C   0  0  1  0  0  0  0  0  0  0  0  0
   12.8605   -6.6000    0.0000 C   0  0  0  0  0  0  0  0  0  0  0  0
   13.5749   -6.1875    0.0000 C   0  0  0  0  0  0  0  0  0  0  0  0
   12.1460   -6.1875    0.0000 C   0  0  0  0  0  0  0  0  0  0  0  0
   13.5749   -7.8375    0.0000 C   0  0  0  0  0  0  0  0  0  0  0  0
   13.5749   -8.6625    0.0000 O   0  0  0  0  0  0  0  0  0  0  0  0
   14.2894   -7.4250    0.0000 N   0  0  0  0  0  0  0  0  0  0  0  0
   15.0039   -7.8375    0.0000 C   0  0  1  0  0  0  0  0  0  0  0  0
   15.0039   -8.6625    0.0000 C   0  0  0  0  0  0  0  0  0  0  0  0
   15.7184   -9.0750    0.0000 C   0  0  0  0  0  0  0  0  0  0  0  0
   16.4328   -8.6625    0.0000 C   0  0  0  0  0  0  0  0  0  0  0  0
   15.7184   -9.9000    0.0000 C   0  0  0  0  0  0  0  0  0  0  0  0
   15.7184   -7.4250    0.0000 C   0  0  0  0  0  0  0  0  0  0  0  0
   15.7184   -6.6000    0.0000 O   0  0  0  0  0  0  0  0  0  0  0  0
   16.4328   -7.8375    0.0000 N   0  0  0  0  0  0  0  0  0  0  0  0
   17.1473   -7.4250    0.0000 C   0  0  1  0  0  0  0  0  0  0  0  0
   17.1473   -6.6000    0.0000 C   0  0  0  0  0  0  0  0  0  0  0  0
   17.8618   -6.1875    0.0000 C   0  0  0  0  0  0  0  0  0  0  0  0
   18.5762   -6.6000    0.0000 C   0  0  0  0  0  0  0  0  0  0  0  0
   18.5762   -7.4250    0.0000 O   0  0  0  0  0  0  0  0  0  0  0  0
   19.2907   -6.1875    0.0000 O   0  0  0  0  0  0  0  0  0  0  0  0
   19.2907   -5.3625    0.0000 C   0  0  0  0  0  0  0  0  0  0  0  0
   20.0052   -4.9500    0.0000 C   0  0  0  0  0  0  0  0  0  0  0  0
   20.7197   -3.7125    0.0000 C   0  0  0  0  0  0  0  0  0  0  0  0
   20.0052   -4.1250    0.0000 C   0  0  0  0  0  0  0  0  0  0  0  0
   20.7197   -5.3625    0.0000 C   0  0  0  0  0  0  0  0  0  0  0  0
   21.4341   -4.9500    0.0000 C   0  0  0  0  0  0  0  0  0  0  0  0
   21.4341   -4.1250    0.0000 C   0  0  0  0  0  0  0  0  0  0  0  0
   17.8618   -7.8375    0.0000 C   0  0  0  0  0  0  0  0  0  0  0  0
   17.8618   -8.6625    0.0000 C   0  0  2  0  0  0  0  0  0  0  0  0
   18.2743   -9.9320    0.0000 N   0  0  0  0  0  0  0  0  0  0  0  0
   18.5292   -9.1474    0.0000 C   0  0  0  0  0  0  0  0  0  0  0  0
   17.1943   -9.1474    0.0000 C   0  0  0  0  0  0  0  0  0  0  0  0
   17.4493   -9.9320    0.0000 C   0  0  0  0  0  0  0  0  0  0  0  0
   19.3138   -8.8925    0.0000 O   0  0  0  0  0  0  0  0  0  0  0  0
  1  2  1  0  0  0  0
  2  3  1  0  0  0  0
  3  4  2  0  0  0  0
  4  5  1  0  0  0  0
  1  5  2  0  0  0  0
  1  6  1  0  0  0  0
  4  7  1  0  0  0  0
  7  8  2  0  0  0  0
  7  9  1  0  0  0  0
 10  9  1  0  0  0  0
 10 11  1  6  0  0  0
 10 12  1  0  0  0  0
 12 13  2  0  0  0  0
 12 14  1  0  0  0  0
 15 14  1  1  0  0  0
 15 16  1  0  0  0  0
 16 17  1  0  0  0  0
 16 18  1  0  0  0  0
 15 19  1  0  0  0  0
 19 20  2  0  0  0  0
 19 21  1  0  0  0  0
 22 21  1  6  0  0  0
 22 23  1  0  0  0  0
 23 24  1  0  0  0  0
 24 25  1  0  0  0  0
 24 26  1  0  0  0  0
 22 27  1  0  0  0  0
 27 28  2  0  0  0  0
 27 29  1  0  0  0  0
 30 29  1  1  0  0  0
 30 31  1  0  0  0  0
 31 32  2  0  0  0  0
 32 33  1  0  0  0  0
 33 34  2  0  0  0  0
 33 35  1  0  0  0  0
 35 36  1  0  0  0  0
 36 37  1  0  0  0  0
 38 39  2  0  0  0  0
 40 41  1  0  0  0  0
 41 42  2  0  0  0  0
 38 42  1  0  0  0  0
 39 37  1  0  0  0  0
 37 40  2  0  0  0  0
 30 43  1  0  0  0  0
 44 43  1  6  0  0  0
 45 46  1  0  0  0  0
 47 48  1  0  0  0  0
 45 48  1  0  0  0  0
 44 46  1  0  0  0  0
 44 47  1  0  0  0  0
 46 49  2  0  0  0  0
M  END
$$$$

  Mrv1823 04162023282D          

 49 51  0  0  1  0            999 V2000
    7.2679   -7.1475    0.0000 C   0  0  0  0  0  0  0  0  0  0  0  0
    7.6804   -6.4330    0.0000 O   0  0  0  0  0  0  0  0  0  0  0  0
    8.4874   -6.6045    0.0000 N   0  0  0  0  0  0  0  0  0  0  0  0
    8.5737   -7.4250    0.0000 C   0  0  0  0  0  0  0  0  0  0  0  0
    7.8200   -7.7606    0.0000 C   0  0  0  0  0  0  0  0  0  0  0  0
    6.4475   -7.2337    0.0000 C   0  0  0  0  0  0  0  0  0  0  0  0
    9.2881   -7.8375    0.0000 C   0  0  0  0  0  0  0  0  0  0  0  0
    9.2881   -8.6625    0.0000 O   0  0  0  0  0  0  0  0  0  0  0  0
   10.0026   -7.4250    0.0000 N   0  0  0  0  0  0  0  0  0  0  0  0
   10.7171   -7.8375    0.0000 C   0  0  1  0  0  0  0  0  0  0  0  0
   10.7171   -8.6625    0.0000 C   0  0  0  0  0  0  0  0  0  0  0  0
   11.4315   -7.4250    0.0000 C   0  0  0  0  0  0  0  0  0  0  0  0
   11.4315   -6.6000    0.0000 O   0  0  0  0  0  0  0  0  0  0  0  0
   12.1460   -7.8375    0.0000 N   0  0  0  0  0  0  0  0  0  0  0  0
   12.8605   -7.4250    0.0000 C   0  0  1  0  0  0  0  0  0  0  0  0
   12.8605   -6.6000    0.0000 C   0  0  0  0  0  0  0  0  0  0  0  0
   13.5749   -6.1875    0.0000 C   0  0  0  0  0  0  0  0  0  0  0  0
   12.1460   -6.1875    0.0000 C   0  0  0  0  0  0  0  0  0  0  0  0
   13.5749   -7.8375    0.0000 C   0  0  0  0  0  0  0  0  0  0  0  0
   13.5749   -8.6625    0.0000 O   0  0  0  0  0  0  0  0  0  0  0  0
   14.2894   -7.4250    0.0000 N   0  0  0  0  0  0  0  0  0  0  0  0
   15.0039   -7.8375    0.0000 C   0  0  1  0  0  0  0  0  0  0  0  0
   15.0039   -8.6625    0.0000 C   0  0  0  0  0  0  0  0  0  0  0  0
   15.7184   -9.0750    0.0000 C   0  0  0  0  0  0  0  0  0  0  0  0
   16.4328   -8.6625    0.0000 C   0  0  0  0  0  0  0  0  0  0  0  0
   15.7184   -9.9000    0.0000 C   0  0  0  0  0  0  0  0  0  0  0  0
   15.7184   -7.4250    0.0000 C   0  0  0  0  0  0  0  0  0  0  0  0
   15.7184   -6.6000    0.0000 O   0  0  0  0  0  0  0  0  0  0  0  0
   16.4328   -7.8375    0.0000 N   0  0  0  0  0  0  0  0  0  0  0  0
   17.1473   -7.4250    0.0000 C   0  0  1  0  0  0  0  0  0  0  0  0
   17.1473   -6.6000    0.0000 C   0  0  0  0  0  0  0  0  0  0  0  0
   17.8618   -6.1875    0.0000 C   0  0  0  0  0  0  0  0  0  0  0  0
   18.5762   -6.6000    0.0000 C   0  0  0  0  0  0  0  0  0  0  0  0
   18.5762   -7.4250    0.0000 O   0  0  0  0  0  0  0  0  0  0  0  0
   19.2907   -6.1875    0.0000 O   0  0  0  0  0  0  0  0  0  0  0  0
   19.2907   -5.3625    0.0000 C   0  0  0  0  0  0  0  0  0  0  0  0
   20.0052   -4.9500    0.0000 C   0  0  0  0  0  0  0  0  0  0  0  0
   20.7197   -3.7125    0.0000 C   0  0  0  0  0  0  0  0  0  0  0  0
   20.0052   -4.1250    0.0000 C   0  0  0  0  0  0  0  0  0  0  0  0
   20.7197   -5.3625    0.0000 C   0  0  0  0  0  0  0  0  0  0  0  0
   21.4341   -4.9500    0.0000 C   0  0  0  0  0  0  0  0  0  0  0  0
   21.4341   -4.1250    0.0000 C   0  0  0  0  0  0  0  0  0  0  0  0
   17.8618   -7.8375    0.0000 C   0  0  0  0  0  0  0  0  0  0  0  0
   17.8618   -8.6625    0.0000 C   0  0  1  0  0  0  0  0  0  0  0  0
   18.2743   -9.9320    0.0000 N   0  0  0  0  0  0  0  0  0  0  0  0
   18.5292   -9.1474    0.0000 C   0  0  0  0  0  0  0  0  0  0  0  0
   17.1943   -9.1474    0.0000 C   0  0  0  0  0  0  0  0  0  0  0  0
   17.4493   -9.9320    0.0000 C   0  0  0  0  0  0  0  0  0  0  0  0
   19.3138   -8.8925    0.0000 O   0  0  0  0  0  0  0  0  0  0  0  0
  1  2  1  0  0  0  0
  2  3  1  0  0  0  0
  3  4  2  0  0  0  0
  4  5  1  0  0  0  0
  1  5  2  0  0  0  0
  1  6  1  0  0  0  0
  4  7  1  0  0  0  0
  7  8  2  0  0  0  0
  7  9  1  0  0  0  0
 10  9  1  0  0  0  0
 10 11  1  6  0  0  0
 10 12  1  0  0  0  0
 12 13  2  0  0  0  0
 12 14  1  0  0  0  0
 15 14  1  1  0  0  0
 15 16  1  0  0  0  0
 16 17  1  0  0  0  0
 16 18  1  0  0  0  0
 15 19  1  0  0  0  0
 19 20  2  0  0  0  0
 19 21  1  0  0  0  0
 22 21  1  6  0  0  0
 22 23  1  0  0  0  0
 23 24  1  0  0  0  0
 24 25  1  0  0  0  0
 24 26  1  0  0  0  0
 22 27  1  0  0  0  0
 27 28  2  0  0  0  0
 27 29  1  0  0  0  0
 30 29  1  1  0  0  0
 30 31  1  0  0  0  0
 31 32  2  0  0  0  0
 32 33  1  0  0  0  0
 33 34  2  0  0  0  0
 33 35  1  0  0  0  0
 35 36  1  0  0  0  0
 36 37  1  0  0  0  0
 38 39  2  0  0  0  0
 40 41  1  0  0  0  0
 41 42  2  0  0  0  0
 38 42  1  0  0  0  0
 39 37  1  0  0  0  0
 37 40  2  0  0  0  0
 30 43  1  0  0  0  0
 44 43  1  1  0  0  0
 45 46  1  0  0  0  0
 47 48  1  0  0  0  0
 45 48  1  0  0  0  0
 44 46  1  0  0  0  0
 44 47  1  0  0  0  0
 46 49  2  0  0  0  0
M  END
$$$$
