
  Mrv1823 04162021542D          

 49 51  0  0  0  0            999 V2000
  -14.0091    6.6147    0.0000 C   0  0  0  0  0  0  0  0  0  0  0  0
  -14.4940    5.9472    0.0000 O   0  0  0  0  0  0  0  0  0  0  0  0
  -14.0091    5.2798    0.0000 N   0  0  0  0  0  0  0  0  0  0  0  0
  -13.2245    5.5348    0.0000 C   0  0  0  0  0  0  0  0  0  0  0  0
  -13.2245    6.3597    0.0000 C   0  0  0  0  0  0  0  0  0  0  0  0
  -14.2503    7.4036    0.0000 C   0  0  0  0  0  0  0  0  0  0  0  0
  -12.5571    5.0498    0.0000 C   0  0  0  0  0  0  0  0  0  0  0  0
  -12.6433    4.2294    0.0000 O   0  0  0  0  0  0  0  0  0  0  0  0
  -11.8034    5.3854    0.0000 N   0  0  0  0  0  0  0  0  0  0  0  0
  -11.1115    4.9361    0.0000 C   0  0  1  0  0  0  0  0  0  0  0  0
  -11.1547    4.1122    0.0000 C   0  0  0  0  0  0  0  0  0  0  0  0
  -10.3578    5.2716    0.0000 C   0  0  0  0  0  0  0  0  0  0  0  0
  -10.3146    6.0955    0.0000 O   0  0  0  0  0  0  0  0  0  0  0  0
   -9.6904    4.7867    0.0000 N   0  0  0  0  0  0  0  0  0  0  0  0
   -8.9553    5.1612    0.0000 C   0  0  1  0  0  0  0  0  0  0  0  0
   -8.9985    5.9851    0.0000 C   0  0  0  0  0  0  0  0  0  0  0  0
   -9.7335    6.3596    0.0000 C   0  0  0  0  0  0  0  0  0  0  0  0
   -8.3065    6.4344    0.0000 C   0  0  0  0  0  0  0  0  0  0  0  0
   -8.2408    4.7487    0.0000 C   0  0  0  0  0  0  0  0  0  0  0  0
   -8.2840    3.9248    0.0000 O   0  0  0  0  0  0  0  0  0  0  0  0
   -7.5263    5.1612    0.0000 N   0  0  0  0  0  0  0  0  0  0  0  0
   -6.7913    4.7867    0.0000 C   0  0  1  0  0  0  0  0  0  0  0  0
   -6.7913    3.9617    0.0000 C   0  0  0  0  0  0  0  0  0  0  0  0
   -6.0982    3.5141    0.0000 C   0  0  0  0  0  0  0  0  0  0  0  0
   -5.3641    3.8906    0.0000 C   0  0  0  0  0  0  0  0  0  0  0  0
   -6.1280    2.6897    0.0000 C   0  0  0  0  0  0  0  0  0  0  0  0
   -6.0994    5.2360    0.0000 C   0  0  0  0  0  0  0  0  0  0  0  0
   -6.1425    6.0599    0.0000 O   0  0  0  0  0  0  0  0  0  0  0  0
   -5.3643    4.8614    0.0000 N   0  0  0  0  0  0  0  0  0  0  0  0
   -4.6498    5.2739    0.0000 C   0  0  2  0  0  0  0  0  0  0  0  0
   -3.9353    4.8614    0.0000 C   0  0  0  0  0  0  0  0  0  0  0  0
   -3.2209    5.2739    0.0000 C   0  0  0  0  0  0  0  0  0  0  0  0
   -2.5064    4.8614    0.0000 C   0  0  0  0  0  0  0  0  0  0  0  0
   -2.5623    4.0389    0.0000 O   0  0  0  0  0  0  0  0  0  0  0  0
   -1.7919    5.2739    0.0000 O   0  0  0  0  0  0  0  0  0  0  0  0
   -1.0775    4.8614    0.0000 C   0  0  0  0  0  0  0  0  0  0  0  0
   -0.3630    5.2739    0.0000 C   0  0  0  0  0  0  0  0  0  0  0  0
    0.3515    6.5114    0.0000 C   0  0  0  0  0  0  0  0  0  0  0  0
   -0.3630    6.0989    0.0000 C   0  0  0  0  0  0  0  0  0  0  0  0
    0.3515    4.8614    0.0000 C   0  0  0  0  0  0  0  0  0  0  0  0
    1.0660    5.2739    0.0000 C   0  0  0  0  0  0  0  0  0  0  0  0
    1.0660    6.0989    0.0000 C   0  0  0  0  0  0  0  0  0  0  0  0
   -4.6498    6.0989    0.0000 C   0  0  0  0  0  0  0  0  0  0  0  0
   -3.9353    6.5114    0.0000 C   0  0  1  0  0  0  0  0  0  0  0  0
   -2.9591    7.4218    0.0000 N   0  0  0  0  0  0  0  0  0  0  0  0
   -3.7779    7.3212    0.0000 C   0  0  0  0  0  0  0  0  0  0  0  0
   -3.2138    6.1115    0.0000 C   0  0  0  0  0  0  0  0  0  0  0  0
   -2.6104    6.6741    0.0000 C   0  0  0  0  0  0  0  0  0  0  0  0
   -4.3613    7.9046    0.0000 O   0  0  0  0  0  0  0  0  0  0  0  0
  1  2  1  0  0  0  0
  2  3  1  0  0  0  0
  3  4  2  0  0  0  0
  4  5  1  0  0  0  0
  1  5  2  0  0  0  0
  1  6  1  0  0  0  0
  4  7  1  0  0  0  0
  7  8  2  0  0  0  0
  7  9  1  0  0  0  0
  9 10  1  0  0  0  0
 10 11  1  6  0  0  0
 10 12  1  0  0  0  0
 12 13  2  0  0  0  0
 12 14  1  0  0  0  0
 14 15  1  0  0  0  0
 15 16  1  1  0  0  0
 16 17  1  0  0  0  0
 16 18  1  0  0  0  0
 15 19  1  0  0  0  0
 19 20  2  0  0  0  0
 19 21  1  0  0  0  0
 21 22  1  0  0  0  0
 22 23  1  6  0  0  0
 23 24  1  0  0  0  0
 24 25  1  0  0  0  0
 24 26  1  0  0  0  0
 22 27  1  0  0  0  0
 27 28  2  0  0  0  0
 27 29  1  0  0  0  0
 29 30  1  0  0  0  0
 30 31  1  0  0  0  0
 31 32  2  0  0  0  0
 32 33  1  0  0  0  0
 33 34  2  0  0  0  0
 33 35  1  0  0  0  0
 35 36  1  0  0  0  0
 36 37  1  0  0  0  0
 38 39  2  0  0  0  0
 40 41  1  0  0  0  0
 41 42  2  0  0  0  0
 38 42  1  0  0  0  0
 39 37  1  0  0  0  0
 37 40  2  0  0  0  0
 30 43  1  1  0  0  0
 43 44  1  0  0  0  0
 45 46  1  0  0  0  0
 47 48  1  0  0  0  0
 45 48  1  0  0  0  0
 46 44  1  0  0  0  0
 44 47  1  1  0  0  0
 46 49  2  0  0  0  0
M  END
