Compound 1
Actelion Java MolfileCreator 1.0

 14 15  0  0  0  0  0  0  0  0999 V2000
    0.0000   -0.0000   -0.0000 O   0  0  0  0  0  0  0  0  0  0  0  0
   -1.4964    0.0117   -0.0000 C   0  0  0  0  0  0  0  0  0  0  0  0
   -2.3849   -1.1925   -0.0000 N   0  0  0  0  0  0  0  0  0  0  0  0
   -2.3849    1.2392   -0.0000 C   0  0  0  0  0  0  0  0  0  0  0  0
   -3.8229   -0.7248   -0.0000 C   0  0  0  0  0  0  0  0  0  0  0  0
   -1.9407    2.6655   -0.0000 O   0  0  0  0  0  0  0  0  0  0  0  0
   -3.8229    0.7833   -0.0000 C   0  0  0  0  0  0  0  0  0  0  0  0
   -5.1206   -1.4614   -0.0000 C   0  0  0  0  0  0  0  0  0  0  0  0
   -5.1323    1.5315   -0.0000 C   0  0  0  0  0  0  0  0  0  0  0  0
   -6.4183   -0.7015   -0.0000 C   0  0  0  0  0  0  0  0  0  0  0  0
   -6.4183    0.7950   -0.0000 C   0  0  0  0  0  0  0  0  0  0  0  0
   -7.7160    1.5432   -0.0000 C   0  0  0  0  0  0  0  0  0  0  0  0
   -7.7277    3.0396   -0.0000 O   0  0  0  0  0  0  0  0  0  0  0  0
   -9.0137    0.8067   -0.0000 N   0  0  0  0  0  0  0  0  0  0  0  0
  1  2  2  0  0  0  0
  2  3  1  0  0  0  0
  2  4  1  0  0  0  0
  3  5  1  0  0  0  0
  4  6  2  0  0  0  0
  4  7  1  0  0  0  0
  5  8  1  0  0  0  0
  7  9  1  0  0  0  0
  8 10  2  0  0  0  0
  9 11  2  0  0  0  0
 11 12  1  0  0  0  0
 12 13  2  0  0  0  0
 12 14  1  0  0  0  0
  5  7  2  0  0  0  0
 10 11  1  0  0  0  0
M  END
>  <MolRegNo>
349012

>  <m>
<

>  <Value>
25

>  <Unit>
%

>  <Type>
Inhibition

>  <Ligand Efficiency>


>  <Binding Efficiency>


>  <Surface Efficiency>


>  <Assay Index>
262887

>  <Assay Category>


>  <Assay Organism>
SARS coronavirus

>  <Target ID>
20012

>  <Target Name>
SARS coronavirus 3C-like proteinase

>  <Target Organism>
SARS coronavirus

>  <Target Description>
Target is a single protein chain

>  <Sequence Accession>
P0C6U8

>  <Reference>
J. Med. Chem. 49 (12), 3440-3443 (2006)

>  <Pubmed ID>
16759084

>  <DOI>
10.1021/jm0602357

>  <InChI-Key>
AARFXJVACBOQII-UHFFFAOYSA-N

>  <Molecular Formula>
C9H6N2O3

>  <Monoisotopic Mass>
190.037843

>  <Druglikeness>
-0.89362

$$$$
Compound 2
Actelion Java MolfileCreator 1.0

 35 37  0  0  0  0  0  0  0  0999 V2000
    0.0000   -0.0000   -0.0000 O   0  0  0  0  0  0  0  0  0  0  0  0
   -1.5030   -0.1420   -0.0000 N   0  0  0  0  0  0  0  0  0  0  0  0
   -2.1302   -1.5030   -0.0000 O   0  0  0  0  0  0  0  0  0  0  0  0
   -2.4024    1.0888   -0.0000 C   0  0  0  0  0  0  0  0  0  0  0  0
   -1.7988    2.4734   -0.0000 C   0  0  0  0  0  0  0  0  0  0  0  0
   -3.9053    0.9467   -0.0000 C   0  0  0  0  0  0  0  0  0  0  0  0
   -0.3195    2.6390   -0.0000 C   0  0  0  0  0  0  0  0  0  0  0  0
   -2.6982    3.7041   -0.0000 C   0  0  0  0  0  0  0  0  0  0  0  0
   -4.8047    2.1775   -0.0000 C   0  0  0  0  0  0  0  0  0  0  0  0
    0.6746    1.5385   -0.0000 O   0  0  0  0  0  0  0  0  0  0  0  0
    0.4142    3.9527   -0.0000 C   0  0  0  0  0  0  0  0  0  0  0  0
   -4.2012    3.5621   -0.0000 C   0  0  0  0  0  0  0  0  0  0  0  0
    2.0355    2.1657   -0.0000 C   0  0  0  0  0  0  0  0  0  0  0  0
    1.8698    3.6568   -0.0000 C   0  0  0  0  0  0  0  0  0  0  0  0
    3.3254    1.4319   -0.0000 C   0  0  0  0  0  0  0  0  0  0  0  0
    3.3136   -0.0592   -0.0000 C   0  0  0  0  0  0  0  0  0  0  0  0
    2.0000   -0.7929   -0.0000 N   0  0  0  0  0  0  0  0  0  0  0  0
    4.6035   -0.7929   -0.0000 C   0  0  0  0  0  0  0  0  0  0  0  0
    1.9882   -2.2840   -0.0000 C   0  0  0  0  0  0  0  0  0  0  0  0
    4.5917   -2.2840   -0.0000 O   0  0  0  0  0  0  0  0  0  0  0  0
    5.8935   -0.0355   -0.0000 N   0  0  0  0  0  0  0  0  0  0  0  0
    3.2781   -3.0177   -0.0000 O   0  0  0  0  0  0  0  0  0  0  0  0
    0.6746   -3.0177   -0.0000 C   0  0  0  0  0  0  0  0  0  0  0  0
    7.1834   -0.7692   -0.0000 C   0  0  0  0  0  0  0  0  0  0  0  0
    0.6627   -4.5089   -0.0000 C   0  0  0  0  0  0  0  0  0  0  0  0
   -0.6391   -2.2603   -0.0000 C   0  0  0  0  0  0  0  0  0  0  0  0
    8.4734   -0.0118   -0.0000 C   0  0  0  0  0  0  0  0  0  0  0  0
   -0.6509   -5.2426   -0.0000 C   0  0  0  0  0  0  0  0  0  0  0  0
   -1.9527   -2.9941   -0.0000 C   0  0  0  0  0  0  0  0  0  0  0  0
    9.7633   -0.7456   -0.0000 C   0  0  0  0  0  0  0  0  0  0  0  0
   -1.9645   -4.4852   -0.0000 C   0  0  0  0  0  0  0  0  0  0  0  0
   11.0532    0.0118   -0.0000 N   0  0  0  0  0  0  0  0  0  0  0  0
   -3.2781   -5.2189   -0.0000 C   0  0  0  0  0  0  0  0  0  0  0  0
   12.3432   -0.7219   -0.0000 C   0  0  0  0  0  0  0  0  0  0  0  0
   11.0414    1.5266   -0.0000 C   0  0  0  0  0  0  0  0  0  0  0  0
  1  2  2  0  0  0  0
  2  3  1  0  0  0  0
  2  4  1  0  0  0  0
  4  5  2  0  0  0  0
  4  6  1  0  0  0  0
  5  7  1  0  0  0  0
  5  8  1  0  0  0  0
  6  9  2  0  0  0  0
  7 10  1  0  0  0  0
  7 11  2  0  0  0  0
  8 12  2  0  0  0  0
 10 13  1  0  0  0  0
 11 14  1  0  0  0  0
 13 15  1  0  0  0  0
 15 16  2  0  0  0  0
 16 17  1  0  0  0  0
 16 18  1  0  0  0  0
 17 19  1  0  0  0  0
 18 20  2  0  0  0  0
 18 21  1  0  0  0  0
 19 22  2  0  0  0  0
 19 23  1  0  0  0  0
 21 24  1  0  0  0  0
 23 25  2  0  0  0  0
 23 26  1  0  0  0  0
 24 27  1  0  0  0  0
 25 28  1  0  0  0  0
 26 29  2  0  0  0  0
 27 30  1  0  0  0  0
 28 31  2  0  0  0  0
 30 32  1  0  0  0  0
 31 33  1  0  0  0  0
 32 34  1  0  0  0  0
 32 35  1  0  0  0  0
  9 12  1  0  0  0  0
 13 14  2  0  0  0  0
 29 31  1  0  0  0  0
M  CHG  2   2   1   3  -1
M  END
>  <MolRegNo>
738938

>  <m>
=

>  <Value>
41390

>  <Unit>
nM

>  <Type>
IC50

>  <Ligand Efficiency>
0.17

>  <Binding Efficiency>
9.20

>  <Surface Efficiency>
3.72

>  <Assay Index>
589666

>  <Assay Category>


>  <Assay Organism>
SARS coronavirus

>  <Target ID>
101075

>  <Target Name>
Replicase polyprotein 1ab

>  <Target Organism>
SARS coronavirus

>  <Target Description>
Target is a single protein chain

>  <Sequence Accession>
P0C6X7

>  <Reference>
Bioorg. Med. Chem. Lett. 21 (10), 3088-3091 (2011)

>  <Pubmed ID>
21470860

>  <DOI>
10.1016/j.bmcl.2011.03.034

>  <InChI-Key>
AAVOXWIZJYSGEP-UHFFFAOYSA-N

>  <Molecular Formula>
C26H28N4O5

>  <Monoisotopic Mass>
476.205971

>  <Druglikeness>
2.1338

$$$$
Compound 3
Actelion Java MolfileCreator 1.0

 35 37  0  0  0  0  0  0  0  0999 V2000
    0.0000   -0.0000   -0.0000 O   0  0  0  0  0  0  0  0  0  0  0  0
   -1.5030   -0.1420   -0.0000 N   0  0  0  0  0  0  0  0  0  0  0  0
   -2.1302   -1.5030   -0.0000 O   0  0  0  0  0  0  0  0  0  0  0  0
   -2.4024    1.0888   -0.0000 C   0  0  0  0  0  0  0  0  0  0  0  0
   -1.7988    2.4734   -0.0000 C   0  0  0  0  0  0  0  0  0  0  0  0
   -3.9053    0.9467   -0.0000 C   0  0  0  0  0  0  0  0  0  0  0  0
   -0.3195    2.6390   -0.0000 C   0  0  0  0  0  0  0  0  0  0  0  0
   -2.6982    3.7041   -0.0000 C   0  0  0  0  0  0  0  0  0  0  0  0
   -4.8047    2.1775   -0.0000 C   0  0  0  0  0  0  0  0  0  0  0  0
    0.6746    1.5385   -0.0000 O   0  0  0  0  0  0  0  0  0  0  0  0
    0.4142    3.9527   -0.0000 C   0  0  0  0  0  0  0  0  0  0  0  0
   -4.2012    3.5621   -0.0000 C   0  0  0  0  0  0  0  0  0  0  0  0
    2.0355    2.1657   -0.0000 C   0  0  0  0  0  0  0  0  0  0  0  0
    1.8698    3.6568   -0.0000 C   0  0  0  0  0  0  0  0  0  0  0  0
    3.3254    1.4319   -0.0000 C   0  0  0  0  0  0  0  0  0  0  0  0
    3.3136   -0.0592   -0.0000 C   0  0  0  0  0  0  0  0  0  0  0  0
    2.0000   -0.7929   -0.0000 N   0  0  0  0  0  0  0  0  0  0  0  0
    4.6035   -0.7929   -0.0000 C   0  0  0  0  0  0  0  0  0  0  0  0
    1.9882   -2.2840   -0.0000 C   0  0  0  0  0  0  0  0  0  0  0  0
    4.5917   -2.2840   -0.0000 O   0  0  0  0  0  0  0  0  0  0  0  0
    5.8935   -0.0355   -0.0000 N   0  0  0  0  0  0  0  0  0  0  0  0
    3.2781   -3.0177   -0.0000 O   0  0  0  0  0  0  0  0  0  0  0  0
    0.6746   -3.0177   -0.0000 C   0  0  0  0  0  0  0  0  0  0  0  0
    7.1834   -0.7692   -0.0000 C   0  0  0  0  0  0  0  0  0  0  0  0
    0.6627   -4.5089   -0.0000 C   0  0  0  0  0  0  0  0  0  0  0  0
   -0.6391   -2.2603   -0.0000 C   0  0  0  0  0  0  0  0  0  0  0  0
    8.4734   -0.0118   -0.0000 C   0  0  0  0  0  0  0  0  0  0  0  0
   -0.6509   -5.2426   -0.0000 C   0  0  0  0  0  0  0  0  0  0  0  0
   -1.9527   -2.9941   -0.0000 C   0  0  0  0  0  0  0  0  0  0  0  0
    9.7633   -0.7456   -0.0000 C   0  0  0  0  0  0  0  0  0  0  0  0
   -1.9645   -4.4852   -0.0000 C   0  0  0  0  0  0  0  0  0  0  0  0
   11.0532    0.0118   -0.0000 N   0  0  0  0  0  0  0  0  0  0  0  0
   -3.2781   -5.2189   -0.0000 C   0  0  0  0  0  0  0  0  0  0  0  0
   12.3432   -0.7219   -0.0000 C   0  0  0  0  0  0  0  0  0  0  0  0
   11.0414    1.5266   -0.0000 C   0  0  0  0  0  0  0  0  0  0  0  0
  1  2  2  0  0  0  0
  2  3  1  0  0  0  0
  2  4  1  0  0  0  0
  4  5  2  0  0  0  0
  4  6  1  0  0  0  0
  5  7  1  0  0  0  0
  5  8  1  0  0  0  0
  6  9  2  0  0  0  0
  7 10  1  0  0  0  0
  7 11  2  0  0  0  0
  8 12  2  0  0  0  0
 10 13  1  0  0  0  0
 11 14  1  0  0  0  0
 13 15  1  0  0  0  0
 15 16  2  0  0  0  0
 16 17  1  0  0  0  0
 16 18  1  0  0  0  0
 17 19  1  0  0  0  0
 18 20  2  0  0  0  0
 18 21  1  0  0  0  0
 19 22  2  0  0  0  0
 19 23  1  0  0  0  0
 21 24  1  0  0  0  0
 23 25  2  0  0  0  0
 23 26  1  0  0  0  0
 24 27  1  0  0  0  0
 25 28  1  0  0  0  0
 26 29  2  0  0  0  0
 27 30  1  0  0  0  0
 28 31  2  0  0  0  0
 30 32  1  0  0  0  0
 31 33  1  0  0  0  0
 32 34  1  0  0  0  0
 32 35  1  0  0  0  0
  9 12  1  0  0  0  0
 13 14  2  0  0  0  0
 29 31  1  0  0  0  0
M  CHG  2   2   1   3  -1
M  END
>  <MolRegNo>
738938

>  <m>
=

>  <Value>
81.43

>  <Unit>
%

>  <Type>
Inhibition

>  <Ligand Efficiency>


>  <Binding Efficiency>


>  <Surface Efficiency>


>  <Assay Index>
589665

>  <Assay Category>


>  <Assay Organism>
SARS coronavirus

>  <Target ID>
101075

>  <Target Name>
Replicase polyprotein 1ab

>  <Target Organism>
SARS coronavirus

>  <Target Description>
Target is a single protein chain

>  <Sequence Accession>
P0C6X7

>  <Reference>
Bioorg. Med. Chem. Lett. 21 (10), 3088-3091 (2011)

>  <Pubmed ID>
21470860

>  <DOI>
10.1016/j.bmcl.2011.03.034

>  <InChI-Key>
AAVOXWIZJYSGEP-UHFFFAOYSA-N

>  <Molecular Formula>
C26H28N4O5

>  <Monoisotopic Mass>
476.205971

>  <Druglikeness>
2.1338

$$$$
Compound 4
Actelion Java MolfileCreator 1.0

 35 37  0  0  0  0  0  0  0  0999 V2000
    0.0000   -0.0000   -0.0000 O   0  0  0  0  0  0  0  0  0  0  0  0
   -1.5030   -0.1420   -0.0000 N   0  0  0  0  0  0  0  0  0  0  0  0
   -2.1302   -1.5030   -0.0000 O   0  0  0  0  0  0  0  0  0  0  0  0
   -2.4024    1.0888   -0.0000 C   0  0  0  0  0  0  0  0  0  0  0  0
   -1.7988    2.4734   -0.0000 C   0  0  0  0  0  0  0  0  0  0  0  0
   -3.9053    0.9467   -0.0000 C   0  0  0  0  0  0  0  0  0  0  0  0
   -0.3195    2.6390   -0.0000 C   0  0  0  0  0  0  0  0  0  0  0  0
   -2.6982    3.7041   -0.0000 C   0  0  0  0  0  0  0  0  0  0  0  0
   -4.8047    2.1775   -0.0000 C   0  0  0  0  0  0  0  0  0  0  0  0
    0.6746    1.5385   -0.0000 O   0  0  0  0  0  0  0  0  0  0  0  0
    0.4142    3.9527   -0.0000 C   0  0  0  0  0  0  0  0  0  0  0  0
   -4.2012    3.5621   -0.0000 C   0  0  0  0  0  0  0  0  0  0  0  0
    2.0355    2.1657   -0.0000 C   0  0  0  0  0  0  0  0  0  0  0  0
    1.8698    3.6568   -0.0000 C   0  0  0  0  0  0  0  0  0  0  0  0
    3.3254    1.4319   -0.0000 C   0  0  0  0  0  0  0  0  0  0  0  0
    3.3136   -0.0592   -0.0000 C   0  0  0  0  0  0  0  0  0  0  0  0
    2.0000   -0.7929   -0.0000 N   0  0  0  0  0  0  0  0  0  0  0  0
    4.6035   -0.7929   -0.0000 C   0  0  0  0  0  0  0  0  0  0  0  0
    1.9882   -2.2840   -0.0000 C   0  0  0  0  0  0  0  0  0  0  0  0
    4.5917   -2.2840   -0.0000 O   0  0  0  0  0  0  0  0  0  0  0  0
    5.8935   -0.0355   -0.0000 N   0  0  0  0  0  0  0  0  0  0  0  0
    3.2781   -3.0177   -0.0000 O   0  0  0  0  0  0  0  0  0  0  0  0
    0.6746   -3.0177   -0.0000 C   0  0  0  0  0  0  0  0  0  0  0  0
    7.1834   -0.7692   -0.0000 C   0  0  0  0  0  0  0  0  0  0  0  0
    0.6627   -4.5089   -0.0000 C   0  0  0  0  0  0  0  0  0  0  0  0
   -0.6391   -2.2603   -0.0000 C   0  0  0  0  0  0  0  0  0  0  0  0
    8.4734   -0.0118   -0.0000 C   0  0  0  0  0  0  0  0  0  0  0  0
   -0.6509   -5.2426   -0.0000 C   0  0  0  0  0  0  0  0  0  0  0  0
   -1.9527   -2.9941   -0.0000 C   0  0  0  0  0  0  0  0  0  0  0  0
    9.7633   -0.7456   -0.0000 C   0  0  0  0  0  0  0  0  0  0  0  0
   -1.9645   -4.4852   -0.0000 C   0  0  0  0  0  0  0  0  0  0  0  0
   11.0532    0.0118   -0.0000 N   0  0  0  0  0  0  0  0  0  0  0  0
   -3.2781   -5.2189   -0.0000 C   0  0  0  0  0  0  0  0  0  0  0  0
   12.3432   -0.7219   -0.0000 C   0  0  0  0  0  0  0  0  0  0  0  0
   11.0414    1.5266   -0.0000 C   0  0  0  0  0  0  0  0  0  0  0  0
  1  2  2  0  0  0  0
  2  3  1  0  0  0  0
  2  4  1  0  0  0  0
  4  5  2  0  0  0  0
  4  6  1  0  0  0  0
  5  7  1  0  0  0  0
  5  8  1  0  0  0  0
  6  9  2  0  0  0  0
  7 10  1  0  0  0  0
  7 11  2  0  0  0  0
  8 12  2  0  0  0  0
 10 13  1  0  0  0  0
 11 14  1  0  0  0  0
 13 15  1  0  0  0  0
 15 16  2  0  0  0  0
 16 17  1  0  0  0  0
 16 18  1  0  0  0  0
 17 19  1  0  0  0  0
 18 20  2  0  0  0  0
 18 21  1  0  0  0  0
 19 22  2  0  0  0  0
 19 23  1  0  0  0  0
 21 24  1  0  0  0  0
 23 25  2  0  0  0  0
 23 26  1  0  0  0  0
 24 27  1  0  0  0  0
 25 28  1  0  0  0  0
 26 29  2  0  0  0  0
 27 30  1  0  0  0  0
 28 31  2  0  0  0  0
 30 32  1  0  0  0  0
 31 33  1  0  0  0  0
 32 34  1  0  0  0  0
 32 35  1  0  0  0  0
  9 12  1  0  0  0  0
 13 14  2  0  0  0  0
 29 31  1  0  0  0  0
M  CHG  2   2   1   3  -1
M  END
>  <MolRegNo>
738938

>  <m>


>  <Value>
0

>  <Unit>


>  <Type>
Inhibition

>  <Ligand Efficiency>


>  <Binding Efficiency>


>  <Surface Efficiency>


>  <Assay Index>
589667

>  <Assay Category>


>  <Assay Organism>
SARS coronavirus

>  <Target ID>
101075

>  <Target Name>
Replicase polyprotein 1ab

>  <Target Organism>
SARS coronavirus

>  <Target Description>
Target is a single protein chain

>  <Sequence Accession>
P0C6X7

>  <Reference>
Bioorg. Med. Chem. Lett. 21 (10), 3088-3091 (2011)

>  <Pubmed ID>
21470860

>  <DOI>
10.1016/j.bmcl.2011.03.034

>  <InChI-Key>
AAVOXWIZJYSGEP-UHFFFAOYSA-N

>  <Molecular Formula>
C26H28N4O5

>  <Monoisotopic Mass>
476.205971

>  <Druglikeness>
2.1338

$$$$
Compound 5
Actelion Java MolfileCreator 1.0

 35 37  0  0  0  0  0  0  0  0999 V2000
    0.0000   -0.0000   -0.0000 O   0  0  0  0  0  0  0  0  0  0  0  0
   -1.5030   -0.1420   -0.0000 N   0  0  0  0  0  0  0  0  0  0  0  0
   -2.1302   -1.5030   -0.0000 O   0  0  0  0  0  0  0  0  0  0  0  0
   -2.4024    1.0888   -0.0000 C   0  0  0  0  0  0  0  0  0  0  0  0
   -1.7988    2.4734   -0.0000 C   0  0  0  0  0  0  0  0  0  0  0  0
   -3.9053    0.9467   -0.0000 C   0  0  0  0  0  0  0  0  0  0  0  0
   -0.3195    2.6390   -0.0000 C   0  0  0  0  0  0  0  0  0  0  0  0
   -2.6982    3.7041   -0.0000 C   0  0  0  0  0  0  0  0  0  0  0  0
   -4.8047    2.1775   -0.0000 C   0  0  0  0  0  0  0  0  0  0  0  0
    0.6746    1.5385   -0.0000 O   0  0  0  0  0  0  0  0  0  0  0  0
    0.4142    3.9527   -0.0000 C   0  0  0  0  0  0  0  0  0  0  0  0
   -4.2012    3.5621   -0.0000 C   0  0  0  0  0  0  0  0  0  0  0  0
    2.0355    2.1657   -0.0000 C   0  0  0  0  0  0  0  0  0  0  0  0
    1.8698    3.6568   -0.0000 C   0  0  0  0  0  0  0  0  0  0  0  0
    3.3254    1.4319   -0.0000 C   0  0  0  0  0  0  0  0  0  0  0  0
    3.3136   -0.0592   -0.0000 C   0  0  0  0  0  0  0  0  0  0  0  0
    2.0000   -0.7929   -0.0000 N   0  0  0  0  0  0  0  0  0  0  0  0
    4.6035   -0.7929   -0.0000 C   0  0  0  0  0  0  0  0  0  0  0  0
    1.9882   -2.2840   -0.0000 C   0  0  0  0  0  0  0  0  0  0  0  0
    4.5917   -2.2840   -0.0000 O   0  0  0  0  0  0  0  0  0  0  0  0
    5.8935   -0.0355   -0.0000 N   0  0  0  0  0  0  0  0  0  0  0  0
    3.2781   -3.0177   -0.0000 O   0  0  0  0  0  0  0  0  0  0  0  0
    0.6746   -3.0177   -0.0000 C   0  0  0  0  0  0  0  0  0  0  0  0
    7.1834   -0.7692   -0.0000 C   0  0  0  0  0  0  0  0  0  0  0  0
    0.6627   -4.5089   -0.0000 C   0  0  0  0  0  0  0  0  0  0  0  0
   -0.6391   -2.2603   -0.0000 C   0  0  0  0  0  0  0  0  0  0  0  0
    8.4734   -0.0118   -0.0000 C   0  0  0  0  0  0  0  0  0  0  0  0
   -0.6509   -5.2426   -0.0000 C   0  0  0  0  0  0  0  0  0  0  0  0
   -1.9527   -2.9941   -0.0000 C   0  0  0  0  0  0  0  0  0  0  0  0
    9.7633   -0.7456   -0.0000 C   0  0  0  0  0  0  0  0  0  0  0  0
   -1.9645   -4.4852   -0.0000 C   0  0  0  0  0  0  0  0  0  0  0  0
   11.0532    0.0118   -0.0000 N   0  0  0  0  0  0  0  0  0  0  0  0
   -3.2781   -5.2189   -0.0000 C   0  0  0  0  0  0  0  0  0  0  0  0
   12.3432   -0.7219   -0.0000 C   0  0  0  0  0  0  0  0  0  0  0  0
   11.0414    1.5266   -0.0000 C   0  0  0  0  0  0  0  0  0  0  0  0
  1  2  2  0  0  0  0
  2  3  1  0  0  0  0
  2  4  1  0  0  0  0
  4  5  2  0  0  0  0
  4  6  1  0  0  0  0
  5  7  1  0  0  0  0
  5  8  1  0  0  0  0
  6  9  2  0  0  0  0
  7 10  1  0  0  0  0
  7 11  2  0  0  0  0
  8 12  2  0  0  0  0
 10 13  1  0  0  0  0
 11 14  1  0  0  0  0
 13 15  1  0  0  0  0
 15 16  2  0  0  0  0
 16 17  1  0  0  0  0
 16 18  1  0  0  0  0
 17 19  1  0  0  0  0
 18 20  2  0  0  0  0
 18 21  1  0  0  0  0
 19 22  2  0  0  0  0
 19 23  1  0  0  0  0
 21 24  1  0  0  0  0
 23 25  2  0  0  0  0
 23 26  1  0  0  0  0
 24 27  1  0  0  0  0
 25 28  1  0  0  0  0
 26 29  2  0  0  0  0
 27 30  1  0  0  0  0
 28 31  2  0  0  0  0
 30 32  1  0  0  0  0
 31 33  1  0  0  0  0
 32 34  1  0  0  0  0
 32 35  1  0  0  0  0
  9 12  1  0  0  0  0
 13 14  2  0  0  0  0
 29 31  1  0  0  0  0
M  CHG  2   2   1   3  -1
M  END
>  <MolRegNo>
738938

>  <m>
=

>  <Value>
9930

>  <Unit>
nM

>  <Type>
Ki

>  <Ligand Efficiency>
0.20

>  <Binding Efficiency>
10.50

>  <Surface Efficiency>
4.25

>  <Assay Index>
589724

>  <Assay Category>


>  <Assay Organism>
SARS coronavirus

>  <Target ID>
101075

>  <Target Name>
Replicase polyprotein 1ab

>  <Target Organism>
SARS coronavirus

>  <Target Description>
Target is a single protein chain

>  <Sequence Accession>
P0C6X7

>  <Reference>
Bioorg. Med. Chem. Lett. 21 (10), 3088-3091 (2011)

>  <Pubmed ID>
21470860

>  <DOI>
10.1016/j.bmcl.2011.03.034

>  <InChI-Key>
AAVOXWIZJYSGEP-UHFFFAOYSA-N

>  <Molecular Formula>
C26H28N4O5

>  <Monoisotopic Mass>
476.205971

>  <Druglikeness>
2.1338

$$$$
Compound 6
Actelion Java MolfileCreator 1.0

 22 24  0  0  0  0  0  0  0  0999 V2000
    0.0000   -0.0000   -0.0000 Cl  0  0  0  0  0  0  0  0  0  0  0  0
   -1.3051   -0.7356   -0.0000 C   0  0  0  0  0  0  0  0  0  0  0  0
   -1.3169   -2.2305   -0.0000 C   0  0  0  0  0  0  0  0  0  0  0  0
   -2.6101    0.0237   -0.0000 C   0  0  0  0  0  0  0  0  0  0  0  0
   -2.6339   -2.9661   -0.0000 N   0  0  0  0  0  0  0  0  0  0  0  0
   -3.9152   -0.7119   -0.0000 C   0  0  0  0  0  0  0  0  0  0  0  0
   -3.9389   -2.2068   -0.0000 C   0  0  0  0  0  0  0  0  0  0  0  0
   -5.2203    0.0475   -0.0000 O   0  0  0  0  0  0  0  0  0  0  0  0
   -6.5372   -0.6881   -0.0000 C   0  0  0  0  0  0  0  0  0  0  0  0
   -7.8423    0.0712   -0.0000 O   0  0  0  0  0  0  0  0  0  0  0  0
   -6.5491   -2.1712   -0.0000 C   0  0  0  0  0  0  0  0  0  0  0  0
   -7.8541   -2.9067   -0.0000 C   0  0  0  0  0  0  0  0  0  0  0  0
   -5.2677   -2.9186   -0.0000 C   0  0  0  0  0  0  0  0  0  0  0  0
   -7.8660   -4.4016   -0.0000 C   0  0  0  0  0  0  0  0  0  0  0  0
   -9.3016   -2.4322   -0.0000 C   0  0  0  0  0  0  0  0  0  0  0  0
   -5.2796   -4.4016   -0.0000 C   0  0  0  0  0  0  0  0  0  0  0  0
   -9.3134   -4.8525   -0.0000 N   0  0  0  0  0  0  0  0  0  0  0  0
   -6.5847   -5.1372   -0.0000 C   0  0  0  0  0  0  0  0  0  0  0  0
  -10.2033   -3.6423   -0.0000 C   0  0  0  0  0  0  0  0  0  0  0  0
   -9.7880   -6.2643   -0.0000 C   0  0  0  0  0  0  0  0  0  0  0  0
  -11.2710   -6.5609   -0.0000 O   0  0  0  0  0  0  0  0  0  0  0  0
   -8.7914   -7.3677   -0.0000 C   0  0  0  0  0  0  0  0  0  0  0  0
  1  2  1  0  0  0  0
  2  3  2  0  0  0  0
  2  4  1  0  0  0  0
  3  5  1  0  0  0  0
  4  6  2  0  0  0  0
  5  7  2  0  0  0  0
  6  8  1  0  0  0  0
  8  9  1  0  0  0  0
  9 10  2  0  0  0  0
  9 11  1  0  0  0  0
 11 12  2  0  0  0  0
 11 13  1  0  0  0  0
 12 14  1  0  0  0  0
 12 15  1  0  0  0  0
 13 16  2  0  0  0  0
 14 17  1  0  0  0  0
 14 18  2  0  0  0  0
 15 19  2  0  0  0  0
 17 20  1  0  0  0  0
 20 21  2  0  0  0  0
 20 22  1  0  0  0  0
  6  7  1  0  0  0  0
 16 18  1  0  0  0  0
 17 19  1  0  0  0  0
M  END
>  <MolRegNo>
493034

>  <m>
=

>  <Value>
1080

>  <Unit>
nM

>  <Type>
IC50

>  <Ligand Efficiency>


>  <Binding Efficiency>


>  <Surface Efficiency>


>  <Assay Index>
341535

>  <Assay Category>


>  <Assay Organism>
SARS coronavirus

>  <Target ID>
100499

>  <Target Name>
SARS coronavirus

>  <Target Organism>
SARS coronavirus

>  <Target Description>
Target is a complete organism

>  <Sequence Accession>


>  <Reference>
Bioorg. Med. Chem. Lett. 18 (20), 5684-5688 (2008)

>  <Pubmed ID>
18796354

>  <DOI>
10.1016/j.bmcl.2008.08.082

>  <InChI-Key>
ADZDQOZVSUYRGT-UHFFFAOYSA-N

>  <Molecular Formula>
C16H11N2O3Cl

>  <Monoisotopic Mass>
314.045820

>  <Druglikeness>
1.3949

$$$$
Compound 7
Actelion Java MolfileCreator 1.0

 21 23  0  0  0  0  0  0  0  0999 V2000
    0.0000   -0.0000   -0.0000 O   0  0  0  0  0  0  0  0  0  0  0  0
   -1.5056    0.0118   -0.0000 C   0  0  0  0  0  0  0  0  0  0  0  0
   -2.3996   -1.1880   -0.0000 N   0  0  0  0  0  0  0  0  0  0  0  0
   -2.3996    1.2351   -0.0000 C   0  0  0  0  0  0  0  0  0  0  0  0
   -3.8347   -0.7175   -0.0000 C   0  0  0  0  0  0  0  0  0  0  0  0
   -1.9409   -2.5996   -0.0000 C   0  0  0  0  0  0  0  0  0  0  0  0
   -1.9644    2.6701   -0.0000 O   0  0  0  0  0  0  0  0  0  0  0  0
   -3.8347    0.7763   -0.0000 C   0  0  0  0  0  0  0  0  0  0  0  0
   -5.1403   -1.4586   -0.0000 C   0  0  0  0  0  0  0  0  0  0  0  0
   -2.9642   -3.6935   -0.0000 C   0  0  0  0  0  0  0  0  0  0  0  0
   -5.1403    1.5409   -0.0000 C   0  0  0  0  0  0  0  0  0  0  0  0
   -6.4460   -0.6940   -0.0000 C   0  0  0  0  0  0  0  0  0  0  0  0
   -4.4463   -3.5288   -0.0000 C   0  0  0  0  0  0  0  0  0  0  0  0
   -2.6584   -5.1403   -0.0000 C   0  0  0  0  0  0  0  0  0  0  0  0
   -6.4460    0.7999   -0.0000 C   0  0  0  0  0  0  0  0  0  0  0  0
   -5.0697   -4.8698   -0.0000 O   0  0  0  0  0  0  0  0  0  0  0  0
   -5.2109   -2.2232   -0.0000 C   0  0  0  0  0  0  0  0  0  0  0  0
   -3.9640   -5.8814   -0.0000 N   0  0  0  0  0  0  0  0  0  0  0  0
   -1.2939   -5.7285   -0.0000 C   0  0  0  0  0  0  0  0  0  0  0  0
   -7.7517    1.5527   -0.0000 C   0  0  0  0  0  0  0  0  0  0  0  0
   -9.0573    2.3173   -0.0000 N   0  0  0  0  0  0  0  0  0  0  0  0
  1  2  2  0  0  0  0
  2  3  1  0  0  0  0
  2  4  1  0  0  0  0
  3  5  1  0  0  0  0
  3  6  1  0  0  0  0
  4  7  2  0  0  0  0
  4  8  1  0  0  0  0
  5  9  1  0  0  0  0
  6 10  1  0  0  0  0
  8 11  1  0  0  0  0
  9 12  2  0  0  0  0
 10 13  2  0  0  0  0
 10 14  1  0  0  0  0
 11 15  2  0  0  0  0
 13 16  1  0  0  0  0
 13 17  1  0  0  0  0
 14 18  2  0  0  0  0
 14 19  1  0  0  0  0
 15 20  1  0  0  0  0
 20 21  3  0  0  0  0
  5  8  2  0  0  0  0
 12 15  1  0  0  0  0
 16 18  1  0  0  0  0
M  END
>  <MolRegNo>
316590

>  <m>
=

>  <Value>
7200

>  <Unit>
nM

>  <Type>
IC50

>  <Ligand Efficiency>
0.33

>  <Binding Efficiency>
18.28

>  <Surface Efficiency>
5.90

>  <Assay Index>
238671

>  <Assay Category>


>  <Assay Organism>
SARS coronavirus

>  <Target ID>
20012

>  <Target Name>
SARS coronavirus 3C-like proteinase

>  <Target Organism>
SARS coronavirus

>  <Target Description>
Target is a single protein chain

>  <Sequence Accession>
P0C6U8

>  <Reference>
Bioorg. Med. Chem. Lett. 15 (12), 3058-3062 (2005)

>  <Pubmed ID>
15896959

>  <DOI>
10.1016/j.bmcl.2005.04.027

>  <InChI-Key>
AGHODQJTQBGFTA-UHFFFAOYSA-N

>  <Molecular Formula>
C15H11N3O3

>  <Monoisotopic Mass>
281.080042

>  <Druglikeness>
-4.4875

$$$$
Compound 8
Actelion Java MolfileCreator 1.0

 21 24  0  0  0  0  0  0  0  0999 V2000
    0.0000   -0.0000   -0.0000 O   0  0  0  0  0  0  0  0  0  0  0  0
    1.2981   -0.7265   -0.0000 C   0  0  0  0  0  0  0  0  0  0  0  0
    1.2981   -2.2152   -0.0000 C   0  0  0  0  0  0  0  0  0  0  0  0
    2.5844    0.0476   -0.0000 C   0  0  0  0  0  0  0  0  0  0  0  0
   -0.0119   -2.9535   -0.0000 C   0  0  0  0  0  0  0  0  0  0  0  0
    2.5963   -2.9416   -0.0000 C   0  0  0  0  0  0  0  0  0  0  0  0
    2.5605    1.5601   -0.0000 O   0  0  0  0  0  0  0  0  0  0  0  0
    3.8825   -0.6788   -0.0000 C   0  0  0  0  0  0  0  0  0  0  0  0
   -0.0119   -4.4541   -0.0000 C   0  0  0  0  0  0  0  0  0  0  0  0
   -1.3339   -2.2032   -0.0000 C   0  0  0  0  0  0  0  0  0  0  0  0
    3.8706   -2.1794   -0.0000 C   0  0  0  0  0  0  0  0  0  0  0  0
    2.5844   -4.4303   -0.0000 C   0  0  0  0  0  0  0  0  0  0  0  0
    5.2997   -0.2025   -0.0000 C   0  0  0  0  0  0  0  0  0  0  0  0
   -1.3219   -5.2163   -0.0000 C   0  0  0  0  0  0  0  0  0  0  0  0
    1.2743   -5.1806   -0.0000 C   0  0  0  0  0  0  0  0  0  0  0  0
   -2.6558   -2.9535   -0.0000 C   0  0  0  0  0  0  0  0  0  0  0  0
    5.2878   -2.6320   -0.0000 O   0  0  0  0  0  0  0  0  0  0  0  0
    6.1691   -1.4053   -0.0000 C   0  0  0  0  0  0  0  0  0  0  0  0
    5.7523    1.2386   -0.0000 C   0  0  0  0  0  0  0  0  0  0  0  0
   -2.6558   -4.4541   -0.0000 C   0  0  0  0  0  0  0  0  0  0  0  0
   -1.3219   -6.7050   -0.0000 C   0  0  0  0  0  0  0  0  0  0  0  0
  1  2  2  0  0  0  0
  2  3  1  0  0  0  0
  2  4  1  0  0  0  0
  3  5  1  0  0  0  0
  3  6  2  0  0  0  0
  4  7  2  0  0  0  0
  4  8  1  0  0  0  0
  5  9  1  0  0  0  0
  5 10  2  0  0  0  0
  6 11  1  0  0  0  0
  6 12  1  0  0  0  0
  8 13  1  0  0  0  0
  9 14  2  0  0  0  0
  9 15  1  0  0  0  0
 10 16  1  0  0  0  0
 11 17  1  0  0  0  0
 13 18  2  0  0  0  0
 13 19  1  0  0  0  0
 14 20  1  0  0  0  0
 14 21  1  0  0  0  0
  8 11  2  0  0  0  0
 12 15  2  0  0  0  0
 16 20  2  0  0  0  0
 17 18  1  0  0  0  0
M  END
>  <MolRegNo>
314701

>  <m>
=

>  <Value>
38700

>  <Unit>
nM

>  <Type>
IC50

>  <Ligand Efficiency>
0.29

>  <Binding Efficiency>
15.97

>  <Surface Efficiency>
9.33

>  <Assay Index>
678191

>  <Assay Category>


>  <Assay Organism>
SARS coronavirus

>  <Target ID>
20012

>  <Target Name>
SARS coronavirus 3C-like proteinase

>  <Target Organism>
SARS coronavirus

>  <Target Description>
Target is a single protein chain

>  <Sequence Accession>
P0C6U8

>  <Reference>
Bioorg. Med. Chem. 20 (19), 5928-5935 (2012)

>  <Pubmed ID>
22884354

>  <DOI>
10.1016/j.bmc.2012.07.038

>  <InChI-Key>
AIGAZQPHXLWMOJ-UHFFFAOYSA-N

>  <Molecular Formula>
C18H12O3

>  <Monoisotopic Mass>
276.078645

>  <Druglikeness>
-3.7055

$$$$
Compound 9
Actelion Java MolfileCreator 1.0

 21 24  0  0  0  0  0  0  0  0999 V2000
    0.0000   -0.0000   -0.0000 O   0  0  0  0  0  0  0  0  0  0  0  0
    1.2981   -0.7265   -0.0000 C   0  0  0  0  0  0  0  0  0  0  0  0
    1.2981   -2.2152   -0.0000 C   0  0  0  0  0  0  0  0  0  0  0  0
    2.5844    0.0476   -0.0000 C   0  0  0  0  0  0  0  0  0  0  0  0
   -0.0119   -2.9535   -0.0000 C   0  0  0  0  0  0  0  0  0  0  0  0
    2.5963   -2.9416   -0.0000 C   0  0  0  0  0  0  0  0  0  0  0  0
    2.5605    1.5601   -0.0000 O   0  0  0  0  0  0  0  0  0  0  0  0
    3.8825   -0.6788   -0.0000 C   0  0  0  0  0  0  0  0  0  0  0  0
   -0.0119   -4.4541   -0.0000 C   0  0  0  0  0  0  0  0  0  0  0  0
   -1.3339   -2.2032   -0.0000 C   0  0  0  0  0  0  0  0  0  0  0  0
    3.8706   -2.1794   -0.0000 C   0  0  0  0  0  0  0  0  0  0  0  0
    2.5844   -4.4303   -0.0000 C   0  0  0  0  0  0  0  0  0  0  0  0
    5.2997   -0.2025   -0.0000 C   0  0  0  0  0  0  0  0  0  0  0  0
   -1.3219   -5.2163   -0.0000 C   0  0  0  0  0  0  0  0  0  0  0  0
    1.2743   -5.1806   -0.0000 C   0  0  0  0  0  0  0  0  0  0  0  0
   -2.6558   -2.9535   -0.0000 C   0  0  0  0  0  0  0  0  0  0  0  0
    5.2878   -2.6320   -0.0000 O   0  0  0  0  0  0  0  0  0  0  0  0
    6.1691   -1.4053   -0.0000 C   0  0  0  0  0  0  0  0  0  0  0  0
    5.7523    1.2386   -0.0000 C   0  0  0  0  0  0  0  0  0  0  0  0
   -2.6558   -4.4541   -0.0000 C   0  0  0  0  0  0  0  0  0  0  0  0
   -1.3219   -6.7050   -0.0000 C   0  0  0  0  0  0  0  0  0  0  0  0
  1  2  2  0  0  0  0
  2  3  1  0  0  0  0
  2  4  1  0  0  0  0
  3  5  1  0  0  0  0
  3  6  2  0  0  0  0
  4  7  2  0  0  0  0
  4  8  1  0  0  0  0
  5  9  1  0  0  0  0
  5 10  2  0  0  0  0
  6 11  1  0  0  0  0
  6 12  1  0  0  0  0
  8 13  1  0  0  0  0
  9 14  2  0  0  0  0
  9 15  1  0  0  0  0
 10 16  1  0  0  0  0
 11 17  1  0  0  0  0
 13 18  2  0  0  0  0
 13 19  1  0  0  0  0
 14 20  1  0  0  0  0
 14 21  1  0  0  0  0
  8 11  2  0  0  0  0
 12 15  2  0  0  0  0
 16 20  2  0  0  0  0
 17 18  1  0  0  0  0
M  END
>  <MolRegNo>
314701

>  <m>
=

>  <Value>
11500

>  <Unit>
nM

>  <Type>
IC50

>  <Ligand Efficiency>
0.32

>  <Binding Efficiency>
17.88

>  <Surface Efficiency>
10.45

>  <Assay Index>
678310

>  <Assay Category>


>  <Assay Organism>
SARS coronavirus

>  <Target ID>
20012

>  <Target Name>
SARS coronavirus 3C-like proteinase

>  <Target Organism>
SARS coronavirus

>  <Target Description>
Target is a single protein chain

>  <Sequence Accession>
P0C6U8

>  <Reference>
Bioorg. Med. Chem. 20 (19), 5928-5935 (2012)

>  <Pubmed ID>
22884354

>  <DOI>
10.1016/j.bmc.2012.07.038

>  <InChI-Key>
AIGAZQPHXLWMOJ-UHFFFAOYSA-N

>  <Molecular Formula>
C18H12O3

>  <Monoisotopic Mass>
276.078645

>  <Druglikeness>
-3.7055

$$$$
Compound 10
Actelion Java MolfileCreator 1.0

 21 24  0  0  0  0  0  0  0  0999 V2000
    0.0000   -0.0000   -0.0000 O   0  0  0  0  0  0  0  0  0  0  0  0
    1.2981   -0.7265   -0.0000 C   0  0  0  0  0  0  0  0  0  0  0  0
    1.2981   -2.2152   -0.0000 C   0  0  0  0  0  0  0  0  0  0  0  0
    2.5844    0.0476   -0.0000 C   0  0  0  0  0  0  0  0  0  0  0  0
   -0.0119   -2.9535   -0.0000 C   0  0  0  0  0  0  0  0  0  0  0  0
    2.5963   -2.9416   -0.0000 C   0  0  0  0  0  0  0  0  0  0  0  0
    2.5605    1.5601   -0.0000 O   0  0  0  0  0  0  0  0  0  0  0  0
    3.8825   -0.6788   -0.0000 C   0  0  0  0  0  0  0  0  0  0  0  0
   -0.0119   -4.4541   -0.0000 C   0  0  0  0  0  0  0  0  0  0  0  0
   -1.3339   -2.2032   -0.0000 C   0  0  0  0  0  0  0  0  0  0  0  0
    3.8706   -2.1794   -0.0000 C   0  0  0  0  0  0  0  0  0  0  0  0
    2.5844   -4.4303   -0.0000 C   0  0  0  0  0  0  0  0  0  0  0  0
    5.2997   -0.2025   -0.0000 C   0  0  0  0  0  0  0  0  0  0  0  0
   -1.3219   -5.2163   -0.0000 C   0  0  0  0  0  0  0  0  0  0  0  0
    1.2743   -5.1806   -0.0000 C   0  0  0  0  0  0  0  0  0  0  0  0
   -2.6558   -2.9535   -0.0000 C   0  0  0  0  0  0  0  0  0  0  0  0
    5.2878   -2.6320   -0.0000 O   0  0  0  0  0  0  0  0  0  0  0  0
    6.1691   -1.4053   -0.0000 C   0  0  0  0  0  0  0  0  0  0  0  0
    5.7523    1.2386   -0.0000 C   0  0  0  0  0  0  0  0  0  0  0  0
   -2.6558   -4.4541   -0.0000 C   0  0  0  0  0  0  0  0  0  0  0  0
   -1.3219   -6.7050   -0.0000 C   0  0  0  0  0  0  0  0  0  0  0  0
  1  2  2  0  0  0  0
  2  3  1  0  0  0  0
  2  4  1  0  0  0  0
  3  5  1  0  0  0  0
  3  6  2  0  0  0  0
  4  7  2  0  0  0  0
  4  8  1  0  0  0  0
  5  9  1  0  0  0  0
  5 10  2  0  0  0  0
  6 11  1  0  0  0  0
  6 12  1  0  0  0  0
  8 13  1  0  0  0  0
  9 14  2  0  0  0  0
  9 15  1  0  0  0  0
 10 16  1  0  0  0  0
 11 17  1  0  0  0  0
 13 18  2  0  0  0  0
 13 19  1  0  0  0  0
 14 20  1  0  0  0  0
 14 21  1  0  0  0  0
  8 11  2  0  0  0  0
 12 15  2  0  0  0  0
 16 20  2  0  0  0  0
 17 18  1  0  0  0  0
M  END
>  <MolRegNo>
314701

>  <m>
=

>  <Value>
8800

>  <Unit>
nM

>  <Type>
IC50

>  <Ligand Efficiency>
0.33

>  <Binding Efficiency>
18.30

>  <Surface Efficiency>
10.69

>  <Assay Index>
678190

>  <Assay Category>


>  <Assay Organism>
SARS coronavirus

>  <Target ID>
20012

>  <Target Name>
SARS coronavirus 3C-like proteinase

>  <Target Organism>
SARS coronavirus

>  <Target Description>
Target is a single protein chain

>  <Sequence Accession>
P0C6U8

>  <Reference>
Bioorg. Med. Chem. 20 (19), 5928-5935 (2012)

>  <Pubmed ID>
22884354

>  <DOI>
10.1016/j.bmc.2012.07.038

>  <InChI-Key>
AIGAZQPHXLWMOJ-UHFFFAOYSA-N

>  <Molecular Formula>
C18H12O3

>  <Monoisotopic Mass>
276.078645

>  <Druglikeness>
-3.7055

$$$$
Compound 11
Actelion Java MolfileCreator 1.0

 21 24  0  0  0  0  0  0  0  0999 V2000
    0.0000   -0.0000   -0.0000 O   0  0  0  0  0  0  0  0  0  0  0  0
    1.2981   -0.7265   -0.0000 C   0  0  0  0  0  0  0  0  0  0  0  0
    1.2981   -2.2152   -0.0000 C   0  0  0  0  0  0  0  0  0  0  0  0
    2.5844    0.0476   -0.0000 C   0  0  0  0  0  0  0  0  0  0  0  0
   -0.0119   -2.9535   -0.0000 C   0  0  0  0  0  0  0  0  0  0  0  0
    2.5963   -2.9416   -0.0000 C   0  0  0  0  0  0  0  0  0  0  0  0
    2.5605    1.5601   -0.0000 O   0  0  0  0  0  0  0  0  0  0  0  0
    3.8825   -0.6788   -0.0000 C   0  0  0  0  0  0  0  0  0  0  0  0
   -0.0119   -4.4541   -0.0000 C   0  0  0  0  0  0  0  0  0  0  0  0
   -1.3339   -2.2032   -0.0000 C   0  0  0  0  0  0  0  0  0  0  0  0
    3.8706   -2.1794   -0.0000 C   0  0  0  0  0  0  0  0  0  0  0  0
    2.5844   -4.4303   -0.0000 C   0  0  0  0  0  0  0  0  0  0  0  0
    5.2997   -0.2025   -0.0000 C   0  0  0  0  0  0  0  0  0  0  0  0
   -1.3219   -5.2163   -0.0000 C   0  0  0  0  0  0  0  0  0  0  0  0
    1.2743   -5.1806   -0.0000 C   0  0  0  0  0  0  0  0  0  0  0  0
   -2.6558   -2.9535   -0.0000 C   0  0  0  0  0  0  0  0  0  0  0  0
    5.2878   -2.6320   -0.0000 O   0  0  0  0  0  0  0  0  0  0  0  0
    6.1691   -1.4053   -0.0000 C   0  0  0  0  0  0  0  0  0  0  0  0
    5.7523    1.2386   -0.0000 C   0  0  0  0  0  0  0  0  0  0  0  0
   -2.6558   -4.4541   -0.0000 C   0  0  0  0  0  0  0  0  0  0  0  0
   -1.3219   -6.7050   -0.0000 C   0  0  0  0  0  0  0  0  0  0  0  0
  1  2  2  0  0  0  0
  2  3  1  0  0  0  0
  2  4  1  0  0  0  0
  3  5  1  0  0  0  0
  3  6  2  0  0  0  0
  4  7  2  0  0  0  0
  4  8  1  0  0  0  0
  5  9  1  0  0  0  0
  5 10  2  0  0  0  0
  6 11  1  0  0  0  0
  6 12  1  0  0  0  0
  8 13  1  0  0  0  0
  9 14  2  0  0  0  0
  9 15  1  0  0  0  0
 10 16  1  0  0  0  0
 11 17  1  0  0  0  0
 13 18  2  0  0  0  0
 13 19  1  0  0  0  0
 14 20  1  0  0  0  0
 14 21  1  0  0  0  0
  8 11  2  0  0  0  0
 12 15  2  0  0  0  0
 16 20  2  0  0  0  0
 17 18  1  0  0  0  0
M  END
>  <MolRegNo>
314701

>  <m>
=

>  <Value>
700

>  <Unit>
nM

>  <Type>
IC50

>  <Ligand Efficiency>
0.40

>  <Binding Efficiency>
22.28

>  <Surface Efficiency>
13.02

>  <Assay Index>
678193

>  <Assay Category>


>  <Assay Organism>
SARS coronavirus

>  <Target ID>
20012

>  <Target Name>
SARS coronavirus 3C-like proteinase

>  <Target Organism>
SARS coronavirus

>  <Target Description>
Target is a single protein chain

>  <Sequence Accession>
P0C6U8

>  <Reference>
Bioorg. Med. Chem. 20 (19), 5928-5935 (2012)

>  <Pubmed ID>
22884354

>  <DOI>
10.1016/j.bmc.2012.07.038

>  <InChI-Key>
AIGAZQPHXLWMOJ-UHFFFAOYSA-N

>  <Molecular Formula>
C18H12O3

>  <Monoisotopic Mass>
276.078645

>  <Druglikeness>
-3.7055

$$$$
Compound 12
Actelion Java MolfileCreator 1.0

 21 24  0  0  0  0  0  0  0  0999 V2000
    0.0000   -0.0000   -0.0000 O   0  0  0  0  0  0  0  0  0  0  0  0
    1.2981   -0.7265   -0.0000 C   0  0  0  0  0  0  0  0  0  0  0  0
    1.2981   -2.2152   -0.0000 C   0  0  0  0  0  0  0  0  0  0  0  0
    2.5844    0.0476   -0.0000 C   0  0  0  0  0  0  0  0  0  0  0  0
   -0.0119   -2.9535   -0.0000 C   0  0  0  0  0  0  0  0  0  0  0  0
    2.5963   -2.9416   -0.0000 C   0  0  0  0  0  0  0  0  0  0  0  0
    2.5605    1.5601   -0.0000 O   0  0  0  0  0  0  0  0  0  0  0  0
    3.8825   -0.6788   -0.0000 C   0  0  0  0  0  0  0  0  0  0  0  0
   -0.0119   -4.4541   -0.0000 C   0  0  0  0  0  0  0  0  0  0  0  0
   -1.3339   -2.2032   -0.0000 C   0  0  0  0  0  0  0  0  0  0  0  0
    3.8706   -2.1794   -0.0000 C   0  0  0  0  0  0  0  0  0  0  0  0
    2.5844   -4.4303   -0.0000 C   0  0  0  0  0  0  0  0  0  0  0  0
    5.2997   -0.2025   -0.0000 C   0  0  0  0  0  0  0  0  0  0  0  0
   -1.3219   -5.2163   -0.0000 C   0  0  0  0  0  0  0  0  0  0  0  0
    1.2743   -5.1806   -0.0000 C   0  0  0  0  0  0  0  0  0  0  0  0
   -2.6558   -2.9535   -0.0000 C   0  0  0  0  0  0  0  0  0  0  0  0
    5.2878   -2.6320   -0.0000 O   0  0  0  0  0  0  0  0  0  0  0  0
    6.1691   -1.4053   -0.0000 C   0  0  0  0  0  0  0  0  0  0  0  0
    5.7523    1.2386   -0.0000 C   0  0  0  0  0  0  0  0  0  0  0  0
   -2.6558   -4.4541   -0.0000 C   0  0  0  0  0  0  0  0  0  0  0  0
   -1.3219   -6.7050   -0.0000 C   0  0  0  0  0  0  0  0  0  0  0  0
  1  2  2  0  0  0  0
  2  3  1  0  0  0  0
  2  4  1  0  0  0  0
  3  5  1  0  0  0  0
  3  6  2  0  0  0  0
  4  7  2  0  0  0  0
  4  8  1  0  0  0  0
  5  9  1  0  0  0  0
  5 10  2  0  0  0  0
  6 11  1  0  0  0  0
  6 12  1  0  0  0  0
  8 13  1  0  0  0  0
  9 14  2  0  0  0  0
  9 15  1  0  0  0  0
 10 16  1  0  0  0  0
 11 17  1  0  0  0  0
 13 18  2  0  0  0  0
 13 19  1  0  0  0  0
 14 20  1  0  0  0  0
 14 21  1  0  0  0  0
  8 11  2  0  0  0  0
 12 15  2  0  0  0  0
 16 20  2  0  0  0  0
 17 18  1  0  0  0  0
M  END
>  <MolRegNo>
314701

>  <m>


>  <Value>
0

>  <Unit>


>  <Type>
Inhibition

>  <Ligand Efficiency>


>  <Binding Efficiency>


>  <Surface Efficiency>


>  <Assay Index>
678307

>  <Assay Category>


>  <Assay Organism>
SARS coronavirus

>  <Target ID>
20012

>  <Target Name>
SARS coronavirus 3C-like proteinase

>  <Target Organism>
SARS coronavirus

>  <Target Description>
Target is a single protein chain

>  <Sequence Accession>
P0C6U8

>  <Reference>
Bioorg. Med. Chem. 20 (19), 5928-5935 (2012)

>  <Pubmed ID>
22884354

>  <DOI>
10.1016/j.bmc.2012.07.038

>  <InChI-Key>
AIGAZQPHXLWMOJ-UHFFFAOYSA-N

>  <Molecular Formula>
C18H12O3

>  <Monoisotopic Mass>
276.078645

>  <Druglikeness>
-3.7055

$$$$
Compound 13
Actelion Java MolfileCreator 1.0

 21 24  0  0  0  0  0  0  0  0999 V2000
    0.0000   -0.0000   -0.0000 O   0  0  0  0  0  0  0  0  0  0  0  0
    1.2981   -0.7265   -0.0000 C   0  0  0  0  0  0  0  0  0  0  0  0
    1.2981   -2.2152   -0.0000 C   0  0  0  0  0  0  0  0  0  0  0  0
    2.5844    0.0476   -0.0000 C   0  0  0  0  0  0  0  0  0  0  0  0
   -0.0119   -2.9535   -0.0000 C   0  0  0  0  0  0  0  0  0  0  0  0
    2.5963   -2.9416   -0.0000 C   0  0  0  0  0  0  0  0  0  0  0  0
    2.5605    1.5601   -0.0000 O   0  0  0  0  0  0  0  0  0  0  0  0
    3.8825   -0.6788   -0.0000 C   0  0  0  0  0  0  0  0  0  0  0  0
   -0.0119   -4.4541   -0.0000 C   0  0  0  0  0  0  0  0  0  0  0  0
   -1.3339   -2.2032   -0.0000 C   0  0  0  0  0  0  0  0  0  0  0  0
    3.8706   -2.1794   -0.0000 C   0  0  0  0  0  0  0  0  0  0  0  0
    2.5844   -4.4303   -0.0000 C   0  0  0  0  0  0  0  0  0  0  0  0
    5.2997   -0.2025   -0.0000 C   0  0  0  0  0  0  0  0  0  0  0  0
   -1.3219   -5.2163   -0.0000 C   0  0  0  0  0  0  0  0  0  0  0  0
    1.2743   -5.1806   -0.0000 C   0  0  0  0  0  0  0  0  0  0  0  0
   -2.6558   -2.9535   -0.0000 C   0  0  0  0  0  0  0  0  0  0  0  0
    5.2878   -2.6320   -0.0000 O   0  0  0  0  0  0  0  0  0  0  0  0
    6.1691   -1.4053   -0.0000 C   0  0  0  0  0  0  0  0  0  0  0  0
    5.7523    1.2386   -0.0000 C   0  0  0  0  0  0  0  0  0  0  0  0
   -2.6558   -4.4541   -0.0000 C   0  0  0  0  0  0  0  0  0  0  0  0
   -1.3219   -6.7050   -0.0000 C   0  0  0  0  0  0  0  0  0  0  0  0
  1  2  2  0  0  0  0
  2  3  1  0  0  0  0
  2  4  1  0  0  0  0
  3  5  1  0  0  0  0
  3  6  2  0  0  0  0
  4  7  2  0  0  0  0
  4  8  1  0  0  0  0
  5  9  1  0  0  0  0
  5 10  2  0  0  0  0
  6 11  1  0  0  0  0
  6 12  1  0  0  0  0
  8 13  1  0  0  0  0
  9 14  2  0  0  0  0
  9 15  1  0  0  0  0
 10 16  1  0  0  0  0
 11 17  1  0  0  0  0
 13 18  2  0  0  0  0
 13 19  1  0  0  0  0
 14 20  1  0  0  0  0
 14 21  1  0  0  0  0
  8 11  2  0  0  0  0
 12 15  2  0  0  0  0
 16 20  2  0  0  0  0
 17 18  1  0  0  0  0
M  END
>  <MolRegNo>
314701

>  <m>


>  <Value>
0

>  <Unit>


>  <Type>
Inhibition

>  <Ligand Efficiency>


>  <Binding Efficiency>


>  <Surface Efficiency>


>  <Assay Index>
678308

>  <Assay Category>


>  <Assay Organism>
SARS coronavirus

>  <Target ID>
20012

>  <Target Name>
SARS coronavirus 3C-like proteinase

>  <Target Organism>
SARS coronavirus

>  <Target Description>
Target is a single protein chain

>  <Sequence Accession>
P0C6U8

>  <Reference>
Bioorg. Med. Chem. 20 (19), 5928-5935 (2012)

>  <Pubmed ID>
22884354

>  <DOI>
10.1016/j.bmc.2012.07.038

>  <InChI-Key>
AIGAZQPHXLWMOJ-UHFFFAOYSA-N

>  <Molecular Formula>
C18H12O3

>  <Monoisotopic Mass>
276.078645

>  <Druglikeness>
-3.7055

$$$$
Compound 14
Actelion Java MolfileCreator 1.0

 21 24  0  0  0  0  0  0  0  0999 V2000
    0.0000   -0.0000   -0.0000 O   0  0  0  0  0  0  0  0  0  0  0  0
    1.2981   -0.7265   -0.0000 C   0  0  0  0  0  0  0  0  0  0  0  0
    1.2981   -2.2152   -0.0000 C   0  0  0  0  0  0  0  0  0  0  0  0
    2.5844    0.0476   -0.0000 C   0  0  0  0  0  0  0  0  0  0  0  0
   -0.0119   -2.9535   -0.0000 C   0  0  0  0  0  0  0  0  0  0  0  0
    2.5963   -2.9416   -0.0000 C   0  0  0  0  0  0  0  0  0  0  0  0
    2.5605    1.5601   -0.0000 O   0  0  0  0  0  0  0  0  0  0  0  0
    3.8825   -0.6788   -0.0000 C   0  0  0  0  0  0  0  0  0  0  0  0
   -0.0119   -4.4541   -0.0000 C   0  0  0  0  0  0  0  0  0  0  0  0
   -1.3339   -2.2032   -0.0000 C   0  0  0  0  0  0  0  0  0  0  0  0
    3.8706   -2.1794   -0.0000 C   0  0  0  0  0  0  0  0  0  0  0  0
    2.5844   -4.4303   -0.0000 C   0  0  0  0  0  0  0  0  0  0  0  0
    5.2997   -0.2025   -0.0000 C   0  0  0  0  0  0  0  0  0  0  0  0
   -1.3219   -5.2163   -0.0000 C   0  0  0  0  0  0  0  0  0  0  0  0
    1.2743   -5.1806   -0.0000 C   0  0  0  0  0  0  0  0  0  0  0  0
   -2.6558   -2.9535   -0.0000 C   0  0  0  0  0  0  0  0  0  0  0  0
    5.2878   -2.6320   -0.0000 O   0  0  0  0  0  0  0  0  0  0  0  0
    6.1691   -1.4053   -0.0000 C   0  0  0  0  0  0  0  0  0  0  0  0
    5.7523    1.2386   -0.0000 C   0  0  0  0  0  0  0  0  0  0  0  0
   -2.6558   -4.4541   -0.0000 C   0  0  0  0  0  0  0  0  0  0  0  0
   -1.3219   -6.7050   -0.0000 C   0  0  0  0  0  0  0  0  0  0  0  0
  1  2  2  0  0  0  0
  2  3  1  0  0  0  0
  2  4  1  0  0  0  0
  3  5  1  0  0  0  0
  3  6  2  0  0  0  0
  4  7  2  0  0  0  0
  4  8  1  0  0  0  0
  5  9  1  0  0  0  0
  5 10  2  0  0  0  0
  6 11  1  0  0  0  0
  6 12  1  0  0  0  0
  8 13  1  0  0  0  0
  9 14  2  0  0  0  0
  9 15  1  0  0  0  0
 10 16  1  0  0  0  0
 11 17  1  0  0  0  0
 13 18  2  0  0  0  0
 13 19  1  0  0  0  0
 14 20  1  0  0  0  0
 14 21  1  0  0  0  0
  8 11  2  0  0  0  0
 12 15  2  0  0  0  0
 16 20  2  0  0  0  0
 17 18  1  0  0  0  0
M  END
>  <MolRegNo>
314701

>  <m>


>  <Value>
0

>  <Unit>


>  <Type>
Inhibition

>  <Ligand Efficiency>


>  <Binding Efficiency>


>  <Surface Efficiency>


>  <Assay Index>
678309

>  <Assay Category>


>  <Assay Organism>
SARS coronavirus

>  <Target ID>
20012

>  <Target Name>
SARS coronavirus 3C-like proteinase

>  <Target Organism>
SARS coronavirus

>  <Target Description>
Target is a single protein chain

>  <Sequence Accession>
P0C6U8

>  <Reference>
Bioorg. Med. Chem. 20 (19), 5928-5935 (2012)

>  <Pubmed ID>
22884354

>  <DOI>
10.1016/j.bmc.2012.07.038

>  <InChI-Key>
AIGAZQPHXLWMOJ-UHFFFAOYSA-N

>  <Molecular Formula>
C18H12O3

>  <Monoisotopic Mass>
276.078645

>  <Druglikeness>
-3.7055

$$$$
Compound 15
Actelion Java MolfileCreator 1.0

 21 24  0  0  0  0  0  0  0  0999 V2000
    0.0000   -0.0000   -0.0000 O   0  0  0  0  0  0  0  0  0  0  0  0
    1.2981   -0.7265   -0.0000 C   0  0  0  0  0  0  0  0  0  0  0  0
    1.2981   -2.2152   -0.0000 C   0  0  0  0  0  0  0  0  0  0  0  0
    2.5844    0.0476   -0.0000 C   0  0  0  0  0  0  0  0  0  0  0  0
   -0.0119   -2.9535   -0.0000 C   0  0  0  0  0  0  0  0  0  0  0  0
    2.5963   -2.9416   -0.0000 C   0  0  0  0  0  0  0  0  0  0  0  0
    2.5605    1.5601   -0.0000 O   0  0  0  0  0  0  0  0  0  0  0  0
    3.8825   -0.6788   -0.0000 C   0  0  0  0  0  0  0  0  0  0  0  0
   -0.0119   -4.4541   -0.0000 C   0  0  0  0  0  0  0  0  0  0  0  0
   -1.3339   -2.2032   -0.0000 C   0  0  0  0  0  0  0  0  0  0  0  0
    3.8706   -2.1794   -0.0000 C   0  0  0  0  0  0  0  0  0  0  0  0
    2.5844   -4.4303   -0.0000 C   0  0  0  0  0  0  0  0  0  0  0  0
    5.2997   -0.2025   -0.0000 C   0  0  0  0  0  0  0  0  0  0  0  0
   -1.3219   -5.2163   -0.0000 C   0  0  0  0  0  0  0  0  0  0  0  0
    1.2743   -5.1806   -0.0000 C   0  0  0  0  0  0  0  0  0  0  0  0
   -2.6558   -2.9535   -0.0000 C   0  0  0  0  0  0  0  0  0  0  0  0
    5.2878   -2.6320   -0.0000 O   0  0  0  0  0  0  0  0  0  0  0  0
    6.1691   -1.4053   -0.0000 C   0  0  0  0  0  0  0  0  0  0  0  0
    5.7523    1.2386   -0.0000 C   0  0  0  0  0  0  0  0  0  0  0  0
   -2.6558   -4.4541   -0.0000 C   0  0  0  0  0  0  0  0  0  0  0  0
   -1.3219   -6.7050   -0.0000 C   0  0  0  0  0  0  0  0  0  0  0  0
  1  2  2  0  0  0  0
  2  3  1  0  0  0  0
  2  4  1  0  0  0  0
  3  5  1  0  0  0  0
  3  6  2  0  0  0  0
  4  7  2  0  0  0  0
  4  8  1  0  0  0  0
  5  9  1  0  0  0  0
  5 10  2  0  0  0  0
  6 11  1  0  0  0  0
  6 12  1  0  0  0  0
  8 13  1  0  0  0  0
  9 14  2  0  0  0  0
  9 15  1  0  0  0  0
 10 16  1  0  0  0  0
 11 17  1  0  0  0  0
 13 18  2  0  0  0  0
 13 19  1  0  0  0  0
 14 20  1  0  0  0  0
 14 21  1  0  0  0  0
  8 11  2  0  0  0  0
 12 15  2  0  0  0  0
 16 20  2  0  0  0  0
 17 18  1  0  0  0  0
M  END
>  <MolRegNo>
314701

>  <m>


>  <Value>
0

>  <Unit>


>  <Type>
Inhibition

>  <Ligand Efficiency>


>  <Binding Efficiency>


>  <Surface Efficiency>


>  <Assay Index>
678312

>  <Assay Category>


>  <Assay Organism>
SARS coronavirus

>  <Target ID>
20012

>  <Target Name>
SARS coronavirus 3C-like proteinase

>  <Target Organism>
SARS coronavirus

>  <Target Description>
Target is a single protein chain

>  <Sequence Accession>
P0C6U8

>  <Reference>
Bioorg. Med. Chem. 20 (19), 5928-5935 (2012)

>  <Pubmed ID>
22884354

>  <DOI>
10.1016/j.bmc.2012.07.038

>  <InChI-Key>
AIGAZQPHXLWMOJ-UHFFFAOYSA-N

>  <Molecular Formula>
C18H12O3

>  <Monoisotopic Mass>
276.078645

>  <Druglikeness>
-3.7055

$$$$
Compound 16
Actelion Java MolfileCreator 1.0

 21 24  0  0  0  0  0  0  0  0999 V2000
    0.0000   -0.0000   -0.0000 O   0  0  0  0  0  0  0  0  0  0  0  0
    1.2981   -0.7265   -0.0000 C   0  0  0  0  0  0  0  0  0  0  0  0
    1.2981   -2.2152   -0.0000 C   0  0  0  0  0  0  0  0  0  0  0  0
    2.5844    0.0476   -0.0000 C   0  0  0  0  0  0  0  0  0  0  0  0
   -0.0119   -2.9535   -0.0000 C   0  0  0  0  0  0  0  0  0  0  0  0
    2.5963   -2.9416   -0.0000 C   0  0  0  0  0  0  0  0  0  0  0  0
    2.5605    1.5601   -0.0000 O   0  0  0  0  0  0  0  0  0  0  0  0
    3.8825   -0.6788   -0.0000 C   0  0  0  0  0  0  0  0  0  0  0  0
   -0.0119   -4.4541   -0.0000 C   0  0  0  0  0  0  0  0  0  0  0  0
   -1.3339   -2.2032   -0.0000 C   0  0  0  0  0  0  0  0  0  0  0  0
    3.8706   -2.1794   -0.0000 C   0  0  0  0  0  0  0  0  0  0  0  0
    2.5844   -4.4303   -0.0000 C   0  0  0  0  0  0  0  0  0  0  0  0
    5.2997   -0.2025   -0.0000 C   0  0  0  0  0  0  0  0  0  0  0  0
   -1.3219   -5.2163   -0.0000 C   0  0  0  0  0  0  0  0  0  0  0  0
    1.2743   -5.1806   -0.0000 C   0  0  0  0  0  0  0  0  0  0  0  0
   -2.6558   -2.9535   -0.0000 C   0  0  0  0  0  0  0  0  0  0  0  0
    5.2878   -2.6320   -0.0000 O   0  0  0  0  0  0  0  0  0  0  0  0
    6.1691   -1.4053   -0.0000 C   0  0  0  0  0  0  0  0  0  0  0  0
    5.7523    1.2386   -0.0000 C   0  0  0  0  0  0  0  0  0  0  0  0
   -2.6558   -4.4541   -0.0000 C   0  0  0  0  0  0  0  0  0  0  0  0
   -1.3219   -6.7050   -0.0000 C   0  0  0  0  0  0  0  0  0  0  0  0
  1  2  2  0  0  0  0
  2  3  1  0  0  0  0
  2  4  1  0  0  0  0
  3  5  1  0  0  0  0
  3  6  2  0  0  0  0
  4  7  2  0  0  0  0
  4  8  1  0  0  0  0
  5  9  1  0  0  0  0
  5 10  2  0  0  0  0
  6 11  1  0  0  0  0
  6 12  1  0  0  0  0
  8 13  1  0  0  0  0
  9 14  2  0  0  0  0
  9 15  1  0  0  0  0
 10 16  1  0  0  0  0
 11 17  1  0  0  0  0
 13 18  2  0  0  0  0
 13 19  1  0  0  0  0
 14 20  1  0  0  0  0
 14 21  1  0  0  0  0
  8 11  2  0  0  0  0
 12 15  2  0  0  0  0
 16 20  2  0  0  0  0
 17 18  1  0  0  0  0
M  END
>  <MolRegNo>
314701

>  <m>


>  <Value>
0

>  <Unit>


>  <Type>
Inhibition

>  <Ligand Efficiency>


>  <Binding Efficiency>


>  <Surface Efficiency>


>  <Assay Index>
678313

>  <Assay Category>


>  <Assay Organism>
SARS coronavirus

>  <Target ID>
20012

>  <Target Name>
SARS coronavirus 3C-like proteinase

>  <Target Organism>
SARS coronavirus

>  <Target Description>
Target is a single protein chain

>  <Sequence Accession>
P0C6U8

>  <Reference>
Bioorg. Med. Chem. 20 (19), 5928-5935 (2012)

>  <Pubmed ID>
22884354

>  <DOI>
10.1016/j.bmc.2012.07.038

>  <InChI-Key>
AIGAZQPHXLWMOJ-UHFFFAOYSA-N

>  <Molecular Formula>
C18H12O3

>  <Monoisotopic Mass>
276.078645

>  <Druglikeness>
-3.7055

$$$$
Compound 17
Actelion Java MolfileCreator 1.0

 21 24  0  0  0  0  0  0  0  0999 V2000
    0.0000   -0.0000   -0.0000 O   0  0  0  0  0  0  0  0  0  0  0  0
    1.2981   -0.7265   -0.0000 C   0  0  0  0  0  0  0  0  0  0  0  0
    1.2981   -2.2152   -0.0000 C   0  0  0  0  0  0  0  0  0  0  0  0
    2.5844    0.0476   -0.0000 C   0  0  0  0  0  0  0  0  0  0  0  0
   -0.0119   -2.9535   -0.0000 C   0  0  0  0  0  0  0  0  0  0  0  0
    2.5963   -2.9416   -0.0000 C   0  0  0  0  0  0  0  0  0  0  0  0
    2.5605    1.5601   -0.0000 O   0  0  0  0  0  0  0  0  0  0  0  0
    3.8825   -0.6788   -0.0000 C   0  0  0  0  0  0  0  0  0  0  0  0
   -0.0119   -4.4541   -0.0000 C   0  0  0  0  0  0  0  0  0  0  0  0
   -1.3339   -2.2032   -0.0000 C   0  0  0  0  0  0  0  0  0  0  0  0
    3.8706   -2.1794   -0.0000 C   0  0  0  0  0  0  0  0  0  0  0  0
    2.5844   -4.4303   -0.0000 C   0  0  0  0  0  0  0  0  0  0  0  0
    5.2997   -0.2025   -0.0000 C   0  0  0  0  0  0  0  0  0  0  0  0
   -1.3219   -5.2163   -0.0000 C   0  0  0  0  0  0  0  0  0  0  0  0
    1.2743   -5.1806   -0.0000 C   0  0  0  0  0  0  0  0  0  0  0  0
   -2.6558   -2.9535   -0.0000 C   0  0  0  0  0  0  0  0  0  0  0  0
    5.2878   -2.6320   -0.0000 O   0  0  0  0  0  0  0  0  0  0  0  0
    6.1691   -1.4053   -0.0000 C   0  0  0  0  0  0  0  0  0  0  0  0
    5.7523    1.2386   -0.0000 C   0  0  0  0  0  0  0  0  0  0  0  0
   -2.6558   -4.4541   -0.0000 C   0  0  0  0  0  0  0  0  0  0  0  0
   -1.3219   -6.7050   -0.0000 C   0  0  0  0  0  0  0  0  0  0  0  0
  1  2  2  0  0  0  0
  2  3  1  0  0  0  0
  2  4  1  0  0  0  0
  3  5  1  0  0  0  0
  3  6  2  0  0  0  0
  4  7  2  0  0  0  0
  4  8  1  0  0  0  0
  5  9  1  0  0  0  0
  5 10  2  0  0  0  0
  6 11  1  0  0  0  0
  6 12  1  0  0  0  0
  8 13  1  0  0  0  0
  9 14  2  0  0  0  0
  9 15  1  0  0  0  0
 10 16  1  0  0  0  0
 11 17  1  0  0  0  0
 13 18  2  0  0  0  0
 13 19  1  0  0  0  0
 14 20  1  0  0  0  0
 14 21  1  0  0  0  0
  8 11  2  0  0  0  0
 12 15  2  0  0  0  0
 16 20  2  0  0  0  0
 17 18  1  0  0  0  0
M  END
>  <MolRegNo>
314701

>  <m>


>  <Value>
0

>  <Unit>


>  <Type>
Inhibition

>  <Ligand Efficiency>


>  <Binding Efficiency>


>  <Surface Efficiency>


>  <Assay Index>
678191

>  <Assay Category>


>  <Assay Organism>
SARS coronavirus

>  <Target ID>
20012

>  <Target Name>
SARS coronavirus 3C-like proteinase

>  <Target Organism>
SARS coronavirus

>  <Target Description>
Target is a single protein chain

>  <Sequence Accession>
P0C6U8

>  <Reference>
Bioorg. Med. Chem. 20 (19), 5928-5935 (2012)

>  <Pubmed ID>
22884354

>  <DOI>
10.1016/j.bmc.2012.07.038

>  <InChI-Key>
AIGAZQPHXLWMOJ-UHFFFAOYSA-N

>  <Molecular Formula>
C18H12O3

>  <Monoisotopic Mass>
276.078645

>  <Druglikeness>
-3.7055

$$$$
Compound 18
Actelion Java MolfileCreator 1.0

 21 24  0  0  0  0  0  0  0  0999 V2000
    0.0000   -0.0000   -0.0000 O   0  0  0  0  0  0  0  0  0  0  0  0
    1.2981   -0.7265   -0.0000 C   0  0  0  0  0  0  0  0  0  0  0  0
    1.2981   -2.2152   -0.0000 C   0  0  0  0  0  0  0  0  0  0  0  0
    2.5844    0.0476   -0.0000 C   0  0  0  0  0  0  0  0  0  0  0  0
   -0.0119   -2.9535   -0.0000 C   0  0  0  0  0  0  0  0  0  0  0  0
    2.5963   -2.9416   -0.0000 C   0  0  0  0  0  0  0  0  0  0  0  0
    2.5605    1.5601   -0.0000 O   0  0  0  0  0  0  0  0  0  0  0  0
    3.8825   -0.6788   -0.0000 C   0  0  0  0  0  0  0  0  0  0  0  0
   -0.0119   -4.4541   -0.0000 C   0  0  0  0  0  0  0  0  0  0  0  0
   -1.3339   -2.2032   -0.0000 C   0  0  0  0  0  0  0  0  0  0  0  0
    3.8706   -2.1794   -0.0000 C   0  0  0  0  0  0  0  0  0  0  0  0
    2.5844   -4.4303   -0.0000 C   0  0  0  0  0  0  0  0  0  0  0  0
    5.2997   -0.2025   -0.0000 C   0  0  0  0  0  0  0  0  0  0  0  0
   -1.3219   -5.2163   -0.0000 C   0  0  0  0  0  0  0  0  0  0  0  0
    1.2743   -5.1806   -0.0000 C   0  0  0  0  0  0  0  0  0  0  0  0
   -2.6558   -2.9535   -0.0000 C   0  0  0  0  0  0  0  0  0  0  0  0
    5.2878   -2.6320   -0.0000 O   0  0  0  0  0  0  0  0  0  0  0  0
    6.1691   -1.4053   -0.0000 C   0  0  0  0  0  0  0  0  0  0  0  0
    5.7523    1.2386   -0.0000 C   0  0  0  0  0  0  0  0  0  0  0  0
   -2.6558   -4.4541   -0.0000 C   0  0  0  0  0  0  0  0  0  0  0  0
   -1.3219   -6.7050   -0.0000 C   0  0  0  0  0  0  0  0  0  0  0  0
  1  2  2  0  0  0  0
  2  3  1  0  0  0  0
  2  4  1  0  0  0  0
  3  5  1  0  0  0  0
  3  6  2  0  0  0  0
  4  7  2  0  0  0  0
  4  8  1  0  0  0  0
  5  9  1  0  0  0  0
  5 10  2  0  0  0  0
  6 11  1  0  0  0  0
  6 12  1  0  0  0  0
  8 13  1  0  0  0  0
  9 14  2  0  0  0  0
  9 15  1  0  0  0  0
 10 16  1  0  0  0  0
 11 17  1  0  0  0  0
 13 18  2  0  0  0  0
 13 19  1  0  0  0  0
 14 20  1  0  0  0  0
 14 21  1  0  0  0  0
  8 11  2  0  0  0  0
 12 15  2  0  0  0  0
 16 20  2  0  0  0  0
 17 18  1  0  0  0  0
M  END
>  <MolRegNo>
314701

>  <m>
=

>  <Value>
13700

>  <Unit>
nM

>  <Type>
Ki

>  <Ligand Efficiency>
0.32

>  <Binding Efficiency>
17.60

>  <Surface Efficiency>
10.29

>  <Assay Index>
678192

>  <Assay Category>


>  <Assay Organism>
SARS coronavirus

>  <Target ID>
20012

>  <Target Name>
SARS coronavirus 3C-like proteinase

>  <Target Organism>
SARS coronavirus

>  <Target Description>
Target is a single protein chain

>  <Sequence Accession>
P0C6U8

>  <Reference>
Bioorg. Med. Chem. 20 (19), 5928-5935 (2012)

>  <Pubmed ID>
22884354

>  <DOI>
10.1016/j.bmc.2012.07.038

>  <InChI-Key>
AIGAZQPHXLWMOJ-UHFFFAOYSA-N

>  <Molecular Formula>
C18H12O3

>  <Monoisotopic Mass>
276.078645

>  <Druglikeness>
-3.7055

$$$$
Compound 19
Actelion Java MolfileCreator 1.0

 22 25  0  0  0  0  0  0  0  0999 V2000
    0.0000   -0.0000   -0.0000 S   0  0  0  0  0  0  0  0  0  0  0  0
    1.2996   -0.7443   -0.0000 C   0  0  0  0  0  0  0  0  0  0  0  0
   -1.1224   -1.0161   -0.0000 C   0  0  0  0  0  0  0  0  0  0  0  0
    0.9688   -2.1976   -0.0000 C   0  0  0  0  0  0  0  0  0  0  0  0
    2.6938   -0.2836   -0.0000 C   0  0  0  0  0  0  0  0  0  0  0  0
   -0.5199   -2.3630   -0.0000 C   0  0  0  0  0  0  0  0  0  0  0  0
   -2.5875   -0.6853   -0.0000 C   0  0  0  0  0  0  0  0  0  0  0  0
    2.0558   -3.1664   -0.0000 C   0  0  0  0  0  0  0  0  0  0  0  0
    3.7926   -1.2760   -0.0000 C   0  0  0  0  0  0  0  0  0  0  0  0
   -3.0719    0.7562   -0.0000 N   0  0  0  0  0  0  0  0  0  0  0  0
    3.4736   -2.7056   -0.0000 C   0  0  0  0  0  0  0  0  0  0  0  0
   -2.1976    1.9731   -0.0000 C   0  0  0  0  0  0  0  0  0  0  0  0
   -4.5015    1.2169   -0.0000 C   0  0  0  0  0  0  0  0  0  0  0  0
   -0.7089    1.9849   -0.0000 O   0  0  0  0  0  0  0  0  0  0  0  0
   -3.0955    3.2137   -0.0000 C   0  0  0  0  0  0  0  0  0  0  0  0
   -4.5133    2.7292   -0.0000 C   0  0  0  0  0  0  0  0  0  0  0  0
   -5.8247    0.4726   -0.0000 C   0  0  0  0  0  0  0  0  0  0  0  0
   -2.6347    4.6433   -0.0000 O   0  0  0  0  0  0  0  0  0  0  0  0
   -5.8366    3.4972   -0.0000 C   0  0  0  0  0  0  0  0  0  0  0  0
   -7.1362    1.2406   -0.0000 C   0  0  0  0  0  0  0  0  0  0  0  0
   -7.1480    2.7529   -0.0000 C   0  0  0  0  0  0  0  0  0  0  0  0
   -8.4595    3.5208   -0.0000 F   0  0  0  0  0  0  0  0  0  0  0  0
  1  2  1  0  0  0  0
  1  3  1  0  0  0  0
  2  4  2  0  0  0  0
  2  5  1  0  0  0  0
  3  6  2  0  0  0  0
  3  7  1  0  0  0  0
  4  8  1  0  0  0  0
  5  9  2  0  0  0  0
  7 10  1  0  0  0  0
  8 11  2  0  0  0  0
 10 12  1  0  0  0  0
 10 13  1  0  0  0  0
 12 14  2  0  0  0  0
 12 15  1  0  0  0  0
 13 16  2  0  0  0  0
 13 17  1  0  0  0  0
 15 18  2  0  0  0  0
 16 19  1  0  0  0  0
 17 20  2  0  0  0  0
 19 21  2  0  0  0  0
 21 22  1  0  0  0  0
  4  6  1  0  0  0  0
  9 11  1  0  0  0  0
 15 16  1  0  0  0  0
 20 21  1  0  0  0  0
M  END
>  <MolRegNo>
316711

>  <m>
=

>  <Value>
4820

>  <Unit>
nM

>  <Type>
IC50

>  <Ligand Efficiency>
0.33

>  <Binding Efficiency>
17.08

>  <Surface Efficiency>
14.22

>  <Assay Index>
238671

>  <Assay Category>


>  <Assay Organism>
SARS coronavirus

>  <Target ID>
20012

>  <Target Name>
SARS coronavirus 3C-like proteinase

>  <Target Organism>
SARS coronavirus

>  <Target Description>
Target is a single protein chain

>  <Sequence Accession>
P0C6U8

>  <Reference>
Bioorg. Med. Chem. Lett. 15 (12), 3058-3062 (2005)

>  <Pubmed ID>
15896959

>  <DOI>
10.1016/j.bmcl.2005.04.027

>  <InChI-Key>
ANYDLXSQWBLIIK-UHFFFAOYSA-N

>  <Molecular Formula>
C17H10NO2FS

>  <Monoisotopic Mass>
311.041627

>  <Druglikeness>
-0.078566

$$$$
Compound 20
Actelion Java MolfileCreator 1.0

 15 16  0  0  0  0  0  0  0  0999 V2000
    0.0000   -0.0000   -0.0000 S   0  0  0  0  0  0  0  0  0  0  0  0
    1.3618    0.6212   -0.0000 C   0  0  0  0  0  0  0  0  0  0  0  0
   -1.0154    1.1349   -0.0000 C   0  0  0  0  0  0  0  0  0  0  0  0
    2.6520   -0.1195   -0.0000 C   0  0  0  0  0  0  0  0  0  0  0  0
    1.1946    2.1264   -0.0000 C   0  0  0  0  0  0  0  0  0  0  0  0
   -0.2748    2.4489   -0.0000 C   0  0  0  0  0  0  0  0  0  0  0  0
    2.6401   -1.6127   -0.0000 O   0  0  0  0  0  0  0  0  0  0  0  0
    3.9422    0.6451   -0.0000 O   0  0  0  0  0  0  0  0  0  0  0  0
    5.2323   -0.0956   -0.0000 C   0  0  0  0  0  0  0  0  0  0  0  0
    6.5225    0.6690   -0.0000 N   0  0  0  0  0  0  0  0  0  0  0  0
    5.2204   -1.6008   -0.0000 C   0  0  0  0  0  0  0  0  0  0  0  0
    7.8127   -0.0717   -0.0000 C   0  0  0  0  0  0  0  0  0  0  0  0
    6.5106   -2.3414   -0.0000 C   0  0  0  0  0  0  0  0  0  0  0  0
    7.8007   -1.5769   -0.0000 C   0  0  0  0  0  0  0  0  0  0  0  0
    9.1029    0.6929   -0.0000 C   0  0  0  0  0  0  0  0  0  0  0  0
  1  2  1  0  0  0  0
  1  3  1  0  0  0  0
  2  4  1  0  0  0  0
  2  5  2  0  0  0  0
  3  6  2  0  0  0  0
  4  7  2  0  0  0  0
  4  8  1  0  0  0  0
  8  9  1  0  0  0  0
  9 10  2  0  0  0  0
  9 11  1  0  0  0  0
 10 12  1  0  0  0  0
 11 13  2  0  0  0  0
 12 14  2  0  0  0  0
 12 15  1  0  0  0  0
  5  6  1  0  0  0  0
 13 14  1  0  0  0  0
M  END
>  <MolRegNo>
371825

>  <m>
=

>  <Value>
38

>  <Unit>
%

>  <Type>
Inhibition

>  <Ligand Efficiency>


>  <Binding Efficiency>


>  <Surface Efficiency>


>  <Assay Index>
278390

>  <Assay Category>


>  <Assay Organism>
SARS coronavirus

>  <Target ID>
20012

>  <Target Name>
SARS coronavirus 3C-like proteinase

>  <Target Organism>
SARS coronavirus

>  <Target Description>
Target is a single protein chain

>  <Sequence Accession>
P0C6U8

>  <Reference>
J. Med. Chem. 50 (8), 1850-1864 (2007)

>  <Pubmed ID>
17381079

>  <DOI>
10.1021/jm061425k

>  <InChI-Key>
ANYGXCWURPQKSQ-UHFFFAOYSA-N

>  <Molecular Formula>
C11H9NO2S

>  <Monoisotopic Mass>
219.035399

>  <Druglikeness>
1.7228

$$$$
Compound 21
Actelion Java MolfileCreator 1.0

 21 23  0  0  0  0  0  0  0  0999 V2000
    0.0000   -0.0000   -0.0000 O   0  0  0  0  0  0  0  0  0  0  0  0
    1.2234   -0.8720   -0.0000 C   0  0  0  0  0  0  0  0  0  0  0  0
   -1.1843   -0.8720   -0.0000 C   0  0  0  0  0  0  0  0  0  0  0  0
    2.4728   -1.6529   -0.0000 C   0  0  0  0  0  0  0  0  0  0  0  0
    1.6919    0.5206   -0.0000 C   0  0  0  0  0  0  0  0  0  0  0  0
    0.7809   -2.2125   -0.0000 C   0  0  0  0  0  0  0  0  0  0  0  0
   -0.7158   -2.2515   -0.0000 C   0  0  0  0  0  0  0  0  0  0  0  0
   -2.6290   -0.4165   -0.0000 C   0  0  0  0  0  0  0  0  0  0  0  0
    3.7482   -2.3817   -0.0000 C   0  0  0  0  0  0  0  0  0  0  0  0
    3.0064    0.9371   -0.0000 N   0  0  0  0  0  0  0  0  0  0  0  0
    0.8199    1.8611   -0.0000 C   0  0  0  0  0  0  0  0  0  0  0  0
    1.2364   -3.6181   -0.0000 O   0  0  0  0  0  0  0  0  0  0  0  0
   -1.1843   -3.6571   -0.0000 O   0  0  0  0  0  0  0  0  0  0  0  0
   -2.9803    1.0542   -0.0000 O   0  0  0  0  0  0  0  0  0  0  0  0
    4.2688    0.1171   -0.0000 N   0  0  0  0  0  0  0  0  0  0  0  0
    3.0454    2.6029   -0.0000 C   0  0  0  0  0  0  0  0  0  0  0  0
    1.7830    3.0845   -0.0000 C   0  0  0  0  0  0  0  0  0  0  0  0
    5.6353    0.8590   -0.0000 C   0  0  0  0  0  0  0  0  0  0  0  0
    4.3339    3.3057   -0.0000 C   0  0  0  0  0  0  0  0  0  0  0  0
    5.6744    2.4598   -0.0000 N   0  0  0  0  0  0  0  0  0  0  0  0
    4.3599    4.8024   -0.0000 N   0  0  0  0  0  0  0  0  0  0  0  0
  1  2  1  0  0  0  0
  1  3  1  0  0  0  0
  2  4  1  1  0  0  0
  2  5  1  0  0  0  0
  2  6  1  0  0  0  0
  3  7  1  0  0  0  0
  3  8  1  6  0  0  0
  4  9  3  0  0  0  0
  5 10  1  0  0  0  0
  5 11  2  0  0  0  0
  6 12  1  1  0  0  0
  7 13  1  1  0  0  0
  8 14  1  0  0  0  0
 10 15  1  0  0  0  0
 10 16  1  0  0  0  0
 11 17  1  0  0  0  0
 15 18  2  0  0  0  0
 16 19  1  0  0  0  0
 18 20  1  0  0  0  0
 19 21  1  0  0  0  0
  6  7  1  0  0  0  0
 16 17  2  0  0  0  0
 19 20  2  0  0  0  0
M  END
>  <MolRegNo>
1334477

>  <m>
>

>  <Value>
30000

>  <Unit>
nM

>  <Type>
EC50

>  <Ligand Efficiency>


>  <Binding Efficiency>


>  <Surface Efficiency>


>  <Assay Index>
648311

>  <Assay Category>


>  <Assay Organism>
SARS coronavirus

>  <Target ID>
100499

>  <Target Name>
SARS coronavirus

>  <Target Organism>
SARS coronavirus

>  <Target Description>
Target is a complete organism

>  <Sequence Accession>


>  <Reference>
Bioorg. Med. Chem. Lett. 22 (8), 2705-2707 (2012)

>  <Pubmed ID>
22446091

>  <DOI>
10.1016/j.bmcl.2012.02.105

>  <InChI-Key>
AOBXNRJISYWUOA-BQKRADJCSA-N

>  <Molecular Formula>
C13H14N4O4

>  <Monoisotopic Mass>
290.101506

>  <Druglikeness>
1.2211

$$$$
Compound 22
Actelion Java MolfileCreator 1.0

 20 22  0  0  0  0  0  0  0  0999 V2000
    0.0000   -0.0000   -0.0000 F   0  0  0  0  0  0  0  0  0  0  0  0
   -0.0124   -1.2503   -0.0000 C   0  0  0  0  0  0  0  0  0  0  0  0
    1.3369   -2.0425   -0.0000 C   0  0  0  0  0  0  0  0  0  0  0  0
   -1.3988   -2.0425   -0.0000 C   0  0  0  0  0  0  0  0  0  0  0  0
    2.8224   -1.5474   -0.0000 N   0  0  0  0  0  0  0  0  0  0  0  0
    1.3245   -3.6023   -0.0000 C   0  0  0  0  0  0  0  0  0  0  0  0
   -1.4112   -3.6023   -0.0000 N   0  0  0  0  0  0  0  0  0  0  0  0
    3.7261   -2.7853   -0.0000 C   0  0  0  0  0  0  0  0  0  0  0  0
    3.2928   -0.0371   -0.0000 C   0  0  0  0  0  0  0  0  0  0  0  0
    2.8100   -4.0727   -0.0000 N   0  0  0  0  0  0  0  0  0  0  0  0
   -0.0495   -4.3945   -0.0000 C   0  0  0  0  0  0  0  0  0  0  0  0
    4.8030    0.3342   -0.0000 C   0  0  0  0  0  0  0  0  0  0  0  0
    2.4386    1.2874   -0.0000 C   0  0  0  0  0  0  0  0  0  0  0  0
   -0.0619   -5.6448   -0.0000 N   0  0  0  0  0  0  0  0  0  0  0  0
    4.9020    1.9187   -0.0000 C   0  0  0  0  0  0  0  0  0  0  0  0
    1.1636    1.3864   -0.0000 O   0  0  0  0  0  0  0  0  0  0  0  0
    3.4413    2.5005   -0.0000 C   0  0  0  0  0  0  0  0  0  0  0  0
    6.2266    2.7605   -0.0000 C   0  0  0  0  0  0  0  0  0  0  0  0
    3.1195    3.7384   -0.0000 O   0  0  0  0  0  0  0  0  0  0  0  0
    7.3283    2.1787   -0.0000 O   0  0  0  0  0  0  0  0  0  0  0  0
  1  2  1  0  0  0  0
  2  3  2  0  0  0  0
  2  4  1  0  0  0  0
  3  5  1  0  0  0  0
  3  6  1  0  0  0  0
  4  7  2  0  0  0  0
  5  8  1  0  0  0  0
  9  5  1  1  0  0  0
  6 10  1  0  0  0  0
  6 11  2  0  0  0  0
  9 12  1  0  0  0  0
  9 13  1  0  0  0  0
 11 14  1  0  0  0  0
 12 15  2  0  0  0  0
 13 16  1  6  0  0  0
 13 17  1  0  0  0  0
 15 18  1  0  0  0  0
 17 19  1  6  0  0  0
 18 20  1  0  0  0  0
  7 11  1  0  0  0  0
  8 10  2  0  0  0  0
 15 17  1  0  0  0  0
M  END
>  <MolRegNo>
1957398

>  <m>


>  <Value>
0

>  <Unit>


>  <Type>
Activity

>  <Ligand Efficiency>


>  <Binding Efficiency>


>  <Surface Efficiency>


>  <Assay Index>
956765

>  <Assay Category>


>  <Assay Organism>
SARS coronavirus

>  <Target ID>
100499

>  <Target Name>
SARS coronavirus

>  <Target Organism>
SARS coronavirus

>  <Target Description>
Target is a complete organism

>  <Sequence Accession>


>  <Reference>
Bioorg. Med. Chem. 23 (17), 5496-5501 (2015)

>  <Pubmed ID>
26260336

>  <DOI>
10.1016/j.bmc.2015.07.039

>  <InChI-Key>
ARSGJCXAPPNIRH-GGVZMXCHSA-N

>  <Molecular Formula>
C12H13N4O3F

>  <Monoisotopic Mass>
280.097169

>  <Druglikeness>
0.42182

$$$$
Compound 23
Actelion Java MolfileCreator 1.0

 22 23  0  0  0  0  0  0  0  0999 V2000
    0.0000   -0.0000   -0.0000 O   0  0  0  0  0  0  0  0  0  0  0  0
    1.2853    0.7547   -0.0000 C   0  0  0  0  0  0  0  0  0  0  0  0
    2.5707    0.0118   -0.0000 O   0  0  0  0  0  0  0  0  0  0  0  0
    1.2736    2.2641   -0.0000 C   0  0  0  0  0  0  0  0  0  0  0  0
   -0.0354    3.0188   -0.0000 O   0  0  0  0  0  0  0  0  0  0  0  0
    2.5589    3.0188   -0.0000 C   0  0  0  0  0  0  0  0  0  0  0  0
    2.5471    4.5282   -0.0000 C   0  0  0  0  0  0  0  0  0  0  0  0
    1.2382    5.2829   -0.0000 O   0  0  0  0  0  0  0  0  0  0  0  0
    3.8325    5.2829   -0.0000 C   0  0  0  0  0  0  0  0  0  0  0  0
    3.8207    6.7923   -0.0000 C   0  0  0  0  0  0  0  0  0  0  0  0
    5.1178    4.5518   -0.0000 C   0  0  0  0  0  0  0  0  0  0  0  0
    5.1060    7.5470   -0.0000 C   0  0  0  0  0  0  0  0  0  0  0  0
    6.4031    5.3065   -0.0000 C   0  0  0  0  0  0  0  0  0  0  0  0
    5.0942    9.0564   -0.0000 N   0  0  0  0  0  0  0  0  0  0  0  0
    6.3914    6.8041   -0.0000 C   0  0  0  0  0  0  0  0  0  0  0  0
    3.7853    9.8111   -0.0000 C   0  0  0  0  0  0  0  0  0  0  0  0
    3.7735   11.3205   -0.0000 C   0  0  0  0  0  0  0  0  0  0  0  0
    2.4646   12.0752   -0.0000 C   0  0  0  0  0  0  0  0  0  0  0  0
    5.0588   12.0752   -0.0000 C   0  0  0  0  0  0  0  0  0  0  0  0
    2.4528   13.5846   -0.0000 C   0  0  0  0  0  0  0  0  0  0  0  0
    5.0470   13.5846   -0.0000 C   0  0  0  0  0  0  0  0  0  0  0  0
    3.7381   14.3393   -0.0000 C   0  0  0  0  0  0  0  0  0  0  0  0
  1  2  2  0  0  0  0
  2  3  1  0  0  0  0
  2  4  1  0  0  0  0
  4  5  1  0  0  0  0
  4  6  2  0  0  0  0
  6  7  1  0  0  0  0
  7  8  2  0  0  0  0
  7  9  1  0  0  0  0
  9 10  2  0  0  0  0
  9 11  1  0  0  0  0
 10 12  1  0  0  0  0
 11 13  2  0  0  0  0
 12 14  1  0  0  0  0
 12 15  2  0  0  0  0
 14 16  1  0  0  0  0
 16 17  1  0  0  0  0
 17 18  2  0  0  0  0
 17 19  1  0  0  0  0
 18 20  1  0  0  0  0
 19 21  2  0  0  0  0
 20 22  2  0  0  0  0
 13 15  1  0  0  0  0
 21 22  1  0  0  0  0
M  END
>  <MolRegNo>
478462

>  <m>
>

>  <Value>
50000

>  <Unit>
nM

>  <Type>
IC50

>  <Ligand Efficiency>


>  <Binding Efficiency>


>  <Surface Efficiency>


>  <Assay Index>
414789

>  <Assay Category>


>  <Assay Organism>
SARS coronavirus

>  <Target ID>
101075

>  <Target Name>
Replicase polyprotein 1ab

>  <Target Organism>
SARS coronavirus

>  <Target Description>
Target is a single protein chain

>  <Sequence Accession>
P0C6X7

>  <Reference>
Bioorg. Med. Chem. Lett. 19 (6), 1636-1638 (2009)

>  <Pubmed ID>
19233643

>  <DOI>
10.1016/j.bmcl.2009.02.010

>  <InChI-Key>
ASIWCVUPDPRPDL-UHFFFAOYSA-N

>  <Molecular Formula>
C17H15NO4

>  <Monoisotopic Mass>
297.100109

>  <Druglikeness>
2.1147

$$$$
Compound 24
Actelion Java MolfileCreator 1.0

 22 23  0  0  0  0  0  0  0  0999 V2000
    0.0000   -0.0000   -0.0000 O   0  0  0  0  0  0  0  0  0  0  0  0
    1.2853    0.7547   -0.0000 C   0  0  0  0  0  0  0  0  0  0  0  0
    2.5707    0.0118   -0.0000 O   0  0  0  0  0  0  0  0  0  0  0  0
    1.2736    2.2641   -0.0000 C   0  0  0  0  0  0  0  0  0  0  0  0
   -0.0354    3.0188   -0.0000 O   0  0  0  0  0  0  0  0  0  0  0  0
    2.5589    3.0188   -0.0000 C   0  0  0  0  0  0  0  0  0  0  0  0
    2.5471    4.5282   -0.0000 C   0  0  0  0  0  0  0  0  0  0  0  0
    1.2382    5.2829   -0.0000 O   0  0  0  0  0  0  0  0  0  0  0  0
    3.8325    5.2829   -0.0000 C   0  0  0  0  0  0  0  0  0  0  0  0
    3.8207    6.7923   -0.0000 C   0  0  0  0  0  0  0  0  0  0  0  0
    5.1178    4.5518   -0.0000 C   0  0  0  0  0  0  0  0  0  0  0  0
    5.1060    7.5470   -0.0000 C   0  0  0  0  0  0  0  0  0  0  0  0
    6.4031    5.3065   -0.0000 C   0  0  0  0  0  0  0  0  0  0  0  0
    5.0942    9.0564   -0.0000 N   0  0  0  0  0  0  0  0  0  0  0  0
    6.3914    6.8041   -0.0000 C   0  0  0  0  0  0  0  0  0  0  0  0
    3.7853    9.8111   -0.0000 C   0  0  0  0  0  0  0  0  0  0  0  0
    3.7735   11.3205   -0.0000 C   0  0  0  0  0  0  0  0  0  0  0  0
    2.4646   12.0752   -0.0000 C   0  0  0  0  0  0  0  0  0  0  0  0
    5.0588   12.0752   -0.0000 C   0  0  0  0  0  0  0  0  0  0  0  0
    2.4528   13.5846   -0.0000 C   0  0  0  0  0  0  0  0  0  0  0  0
    5.0470   13.5846   -0.0000 C   0  0  0  0  0  0  0  0  0  0  0  0
    3.7381   14.3393   -0.0000 C   0  0  0  0  0  0  0  0  0  0  0  0
  1  2  2  0  0  0  0
  2  3  1  0  0  0  0
  2  4  1  0  0  0  0
  4  5  1  0  0  0  0
  4  6  2  0  0  0  0
  6  7  1  0  0  0  0
  7  8  2  0  0  0  0
  7  9  1  0  0  0  0
  9 10  2  0  0  0  0
  9 11  1  0  0  0  0
 10 12  1  0  0  0  0
 11 13  2  0  0  0  0
 12 14  1  0  0  0  0
 12 15  2  0  0  0  0
 14 16  1  0  0  0  0
 16 17  1  0  0  0  0
 17 18  2  0  0  0  0
 17 19  1  0  0  0  0
 18 20  1  0  0  0  0
 19 21  2  0  0  0  0
 20 22  2  0  0  0  0
 13 15  1  0  0  0  0
 21 22  1  0  0  0  0
M  END
>  <MolRegNo>
478462

>  <m>
=

>  <Value>
5400

>  <Unit>
nM

>  <Type>
IC50

>  <Ligand Efficiency>
0.33

>  <Binding Efficiency>
17.72

>  <Surface Efficiency>
6.08

>  <Assay Index>
414790

>  <Assay Category>


>  <Assay Organism>
SARS coronavirus

>  <Target ID>
101075

>  <Target Name>
Replicase polyprotein 1ab

>  <Target Organism>
SARS coronavirus

>  <Target Description>
Target is a single protein chain

>  <Sequence Accession>
P0C6X7

>  <Reference>
Bioorg. Med. Chem. Lett. 19 (6), 1636-1638 (2009)

>  <Pubmed ID>
19233643

>  <DOI>
10.1016/j.bmcl.2009.02.010

>  <InChI-Key>
ASIWCVUPDPRPDL-UHFFFAOYSA-N

>  <Molecular Formula>
C17H15NO4

>  <Monoisotopic Mass>
297.100109

>  <Druglikeness>
2.1147

$$$$
Compound 25
Actelion Java MolfileCreator 1.0

 22 24  0  0  0  0  0  0  0  0999 V2000
    0.0000   -0.0000   -0.0000 O   0  0  0  0  0  0  0  0  0  0  0  0
   -1.5020    0.0117   -0.0000 C   0  0  0  0  0  0  0  0  0  0  0  0
   -2.3938   -1.1969   -0.0000 N   0  0  0  0  0  0  0  0  0  0  0  0
   -2.3938    1.2439   -0.0000 C   0  0  0  0  0  0  0  0  0  0  0  0
   -3.8372   -0.7275   -0.0000 C   0  0  0  0  0  0  0  0  0  0  0  0
   -1.9479   -2.6050   -0.0000 C   0  0  0  0  0  0  0  0  0  0  0  0
   -1.9479    2.6755   -0.0000 O   0  0  0  0  0  0  0  0  0  0  0  0
   -3.8372    0.7862   -0.0000 C   0  0  0  0  0  0  0  0  0  0  0  0
   -5.1397   -1.4668   -0.0000 C   0  0  0  0  0  0  0  0  0  0  0  0
   -2.9571   -3.6964   -0.0000 C   0  0  0  0  0  0  0  0  0  0  0  0
   -5.1514    1.5372   -0.0000 C   0  0  0  0  0  0  0  0  0  0  0  0
   -6.4422   -0.7041   -0.0000 C   0  0  0  0  0  0  0  0  0  0  0  0
   -4.4239   -3.3678   -0.0000 C   0  0  0  0  0  0  0  0  0  0  0  0
   -2.4994   -5.0927   -0.0000 C   0  0  0  0  0  0  0  0  0  0  0  0
   -6.4422    0.7979   -0.0000 C   0  0  0  0  0  0  0  0  0  0  0  0
   -5.4330   -4.4591   -0.0000 C   0  0  0  0  0  0  0  0  0  0  0  0
   -3.4969   -6.1958   -0.0000 C   0  0  0  0  0  0  0  0  0  0  0  0
   -7.7447    1.5489   -0.0000 C   0  0  0  0  0  0  0  0  0  0  0  0
   -4.9871   -5.8672   -0.0000 C   0  0  0  0  0  0  0  0  0  0  0  0
   -7.7565    3.0510   -0.0000 O   0  0  0  0  0  0  0  0  0  0  0  0
   -9.0473    0.8097   -0.0000 O   0  0  0  0  0  0  0  0  0  0  0  0
  -10.3498    1.5607   -0.0000 C   0  0  0  0  0  0  0  0  0  0  0  0
  1  2  2  0  0  0  0
  2  3  1  0  0  0  0
  2  4  1  0  0  0  0
  3  5  1  0  0  0  0
  3  6  1  0  0  0  0
  4  7  2  0  0  0  0
  4  8  1  0  0  0  0
  5  9  1  0  0  0  0
  6 10  1  0  0  0  0
  8 11  1  0  0  0  0
  9 12  2  0  0  0  0
 10 13  2  0  0  0  0
 10 14  1  0  0  0  0
 11 15  2  0  0  0  0
 13 16  1  0  0  0  0
 14 17  2  0  0  0  0
 15 18  1  0  0  0  0
 16 19  2  0  0  0  0
 18 20  2  0  0  0  0
 18 21  1  0  0  0  0
 21 22  1  0  0  0  0
  5  8  2  0  0  0  0
 12 15  1  0  0  0  0
 17 19  1  0  0  0  0
M  END
>  <MolRegNo>
349527

>  <m>
<

>  <Value>
25

>  <Unit>
%

>  <Type>
Inhibition

>  <Ligand Efficiency>


>  <Binding Efficiency>


>  <Surface Efficiency>


>  <Assay Index>
262887

>  <Assay Category>


>  <Assay Organism>
SARS coronavirus

>  <Target ID>
20012

>  <Target Name>
SARS coronavirus 3C-like proteinase

>  <Target Organism>
SARS coronavirus

>  <Target Description>
Target is a single protein chain

>  <Sequence Accession>
P0C6U8

>  <Reference>
J. Med. Chem. 49 (12), 3440-3443 (2006)

>  <Pubmed ID>
16759084

>  <DOI>
10.1021/jm0602357

>  <InChI-Key>
AUEGQRDPEGTAPP-UHFFFAOYSA-N

>  <Molecular Formula>
C17H13NO4

>  <Monoisotopic Mass>
295.084459

>  <Druglikeness>
-2.4121

$$$$
Compound 26
Actelion Java MolfileCreator 1.0

 33 36  0  0  0  0  0  0  0  0999 V2000
    0.0000   -0.0000   -0.0000 Cl  0  0  0  0  0  0  0  0  0  0  0  0
    1.2897   -0.7404   -0.0000 C   0  0  0  0  0  0  0  0  0  0  0  0
    1.2778   -2.2450   -0.0000 C   0  0  0  0  0  0  0  0  0  0  0  0
    2.5794    0.0239   -0.0000 C   0  0  0  0  0  0  0  0  0  0  0  0
    2.5675   -2.9854   -0.0000 C   0  0  0  0  0  0  0  0  0  0  0  0
    3.8810   -0.7165   -0.0000 C   0  0  0  0  0  0  0  0  0  0  0  0
    3.8691   -2.2211   -0.0000 C   0  0  0  0  0  0  0  0  0  0  0  0
    5.1588   -2.9615   -0.0000 N   0  0  0  0  0  0  0  0  0  0  0  0
    6.4485   -2.1973   -0.0000 C   0  0  0  0  0  0  0  0  0  0  0  0
    6.4366   -0.6807   -0.0000 O   0  0  0  0  0  0  0  0  0  0  0  0
    7.7382   -2.9376   -0.0000 C   0  0  0  0  0  0  0  0  0  0  0  0
    9.0279   -2.1734   -0.0000 S   0  0  0  0  0  0  0  0  0  0  0  0
   10.3176   -2.9138   -0.0000 C   0  0  0  0  0  0  0  0  0  0  0  0
   11.5954   -2.1376   -0.0000 N   0  0  0  0  0  0  0  0  0  0  0  0
   10.2937   -4.4065   -0.0000 N   0  0  0  0  0  0  0  0  0  0  0  0
   12.8851   -2.8660   -0.0000 C   0  0  0  0  0  0  0  0  0  0  0  0
   11.5834   -5.1469   -0.0000 C   0  0  0  0  0  0  0  0  0  0  0  0
   14.1748   -2.0898   -0.0000 C   0  0  0  0  0  0  0  0  0  0  0  0
   12.8851   -4.3706   -0.0000 C   0  0  0  0  0  0  0  0  0  0  0  0
   15.5480   -2.6869   -0.0000 S   0  0  0  0  0  0  0  0  0  0  0  0
   14.3181   -0.5851   -0.0000 C   0  0  0  0  0  0  0  0  0  0  0  0
   16.5392   -1.5524   -0.0000 C   0  0  0  0  0  0  0  0  0  0  0  0
   15.7869   -0.2508   -0.0000 C   0  0  0  0  0  0  0  0  0  0  0  0
   18.0319   -1.6957   -0.0000 C   0  0  0  0  0  0  0  0  0  0  0  0
   19.0231   -0.5613   -0.0000 N   0  0  0  0  0  0  0  0  0  0  0  0
   18.7842   -2.9974   -0.0000 C   0  0  0  0  0  0  0  0  0  0  0  0
   20.3964   -1.1464   -0.0000 N   0  0  0  0  0  0  0  0  0  0  0  0
   20.2531   -2.6630   -0.0000 C   0  0  0  0  0  0  0  0  0  0  0  0
   21.6861   -0.3702   -0.0000 C   0  0  0  0  0  0  0  0  0  0  0  0
   21.3636   -3.6541   -0.0000 C   0  0  0  0  0  0  0  0  0  0  0  0
   20.2769   -4.6931   -0.0000 F   0  0  0  0  0  0  0  0  0  0  0  0
   22.4145   -2.5555   -0.0000 F   0  0  0  0  0  0  0  0  0  0  0  0
   22.4145   -4.6931   -0.0000 F   0  0  0  0  0  0  0  0  0  0  0  0
  1  2  1  0  0  0  0
  2  3  2  0  0  0  0
  2  4  1  0  0  0  0
  3  5  1  0  0  0  0
  4  6  2  0  0  0  0
  5  7  2  0  0  0  0
  7  8  1  0  0  0  0
  8  9  1  0  0  0  0
  9 10  2  0  0  0  0
  9 11  1  0  0  0  0
 11 12  1  0  0  0  0
 12 13  1  0  0  0  0
 13 14  2  0  0  0  0
 13 15  1  0  0  0  0
 14 16  1  0  0  0  0
 15 17  2  0  0  0  0
 16 18  1  0  0  0  0
 16 19  2  0  0  0  0
 18 20  1  0  0  0  0
 18 21  2  0  0  0  0
 20 22  1  0  0  0  0
 21 23  1  0  0  0  0
 22 24  1  0  0  0  0
 24 25  2  0  0  0  0
 24 26  1  0  0  0  0
 25 27  1  0  0  0  0
 26 28  2  0  0  0  0
 27 29  1  0  0  0  0
 28 30  1  0  0  0  0
 30 31  1  0  0  0  0
 30 32  1  0  0  0  0
 30 33  1  0  0  0  0
  6  7  1  0  0  0  0
 17 19  1  0  0  0  0
 22 23  2  0  0  0  0
 27 28  1  0  0  0  0
M  END
>  <MolRegNo>
348389

>  <m>
=

>  <Value>
1.0e14

>  <Unit>
nM

>  <Type>
IC50

>  <Ligand Efficiency>


>  <Binding Efficiency>


>  <Surface Efficiency>


>  <Assay Index>
262926

>  <Assay Category>


>  <Assay Organism>
SARS coronavirus

>  <Target ID>
20012

>  <Target Name>
SARS coronavirus 3C-like proteinase

>  <Target Organism>
SARS coronavirus

>  <Target Description>
Target is a single protein chain

>  <Sequence Accession>
P0C6U8

>  <Reference>
J. Med. Chem. 49 (12), 3485-3495 (2006)

>  <Pubmed ID>
16759091

>  <DOI>
10.1021/jm050852f

>  <InChI-Key>
AWQBIBTZJKFLEW-UHFFFAOYSA-N

>  <Molecular Formula>
C21H15N5OClF3S2

>  <Monoisotopic Mass>
509.035861

>  <Druglikeness>
-1.6531

$$$$
Compound 27
Actelion Java MolfileCreator 1.0

 33 36  0  0  0  0  0  0  0  0999 V2000
    0.0000   -0.0000   -0.0000 Cl  0  0  0  0  0  0  0  0  0  0  0  0
    1.2897   -0.7404   -0.0000 C   0  0  0  0  0  0  0  0  0  0  0  0
    1.2778   -2.2450   -0.0000 C   0  0  0  0  0  0  0  0  0  0  0  0
    2.5794    0.0239   -0.0000 C   0  0  0  0  0  0  0  0  0  0  0  0
    2.5675   -2.9854   -0.0000 C   0  0  0  0  0  0  0  0  0  0  0  0
    3.8810   -0.7165   -0.0000 C   0  0  0  0  0  0  0  0  0  0  0  0
    3.8691   -2.2211   -0.0000 C   0  0  0  0  0  0  0  0  0  0  0  0
    5.1588   -2.9615   -0.0000 N   0  0  0  0  0  0  0  0  0  0  0  0
    6.4485   -2.1973   -0.0000 C   0  0  0  0  0  0  0  0  0  0  0  0
    6.4366   -0.6807   -0.0000 O   0  0  0  0  0  0  0  0  0  0  0  0
    7.7382   -2.9376   -0.0000 C   0  0  0  0  0  0  0  0  0  0  0  0
    9.0279   -2.1734   -0.0000 S   0  0  0  0  0  0  0  0  0  0  0  0
   10.3176   -2.9138   -0.0000 C   0  0  0  0  0  0  0  0  0  0  0  0
   11.5954   -2.1376   -0.0000 N   0  0  0  0  0  0  0  0  0  0  0  0
   10.2937   -4.4065   -0.0000 N   0  0  0  0  0  0  0  0  0  0  0  0
   12.8851   -2.8660   -0.0000 C   0  0  0  0  0  0  0  0  0  0  0  0
   11.5834   -5.1469   -0.0000 C   0  0  0  0  0  0  0  0  0  0  0  0
   14.1748   -2.0898   -0.0000 C   0  0  0  0  0  0  0  0  0  0  0  0
   12.8851   -4.3706   -0.0000 C   0  0  0  0  0  0  0  0  0  0  0  0
   15.5480   -2.6869   -0.0000 S   0  0  0  0  0  0  0  0  0  0  0  0
   14.3181   -0.5851   -0.0000 C   0  0  0  0  0  0  0  0  0  0  0  0
   16.5392   -1.5524   -0.0000 C   0  0  0  0  0  0  0  0  0  0  0  0
   15.7869   -0.2508   -0.0000 C   0  0  0  0  0  0  0  0  0  0  0  0
   18.0319   -1.6957   -0.0000 C   0  0  0  0  0  0  0  0  0  0  0  0
   19.0231   -0.5613   -0.0000 N   0  0  0  0  0  0  0  0  0  0  0  0
   18.7842   -2.9974   -0.0000 C   0  0  0  0  0  0  0  0  0  0  0  0
   20.3964   -1.1464   -0.0000 N   0  0  0  0  0  0  0  0  0  0  0  0
   20.2531   -2.6630   -0.0000 C   0  0  0  0  0  0  0  0  0  0  0  0
   21.6861   -0.3702   -0.0000 C   0  0  0  0  0  0  0  0  0  0  0  0
   21.3636   -3.6541   -0.0000 C   0  0  0  0  0  0  0  0  0  0  0  0
   20.2769   -4.6931   -0.0000 F   0  0  0  0  0  0  0  0  0  0  0  0
   22.4145   -2.5555   -0.0000 F   0  0  0  0  0  0  0  0  0  0  0  0
   22.4145   -4.6931   -0.0000 F   0  0  0  0  0  0  0  0  0  0  0  0
  1  2  1  0  0  0  0
  2  3  2  0  0  0  0
  2  4  1  0  0  0  0
  3  5  1  0  0  0  0
  4  6  2  0  0  0  0
  5  7  2  0  0  0  0
  7  8  1  0  0  0  0
  8  9  1  0  0  0  0
  9 10  2  0  0  0  0
  9 11  1  0  0  0  0
 11 12  1  0  0  0  0
 12 13  1  0  0  0  0
 13 14  2  0  0  0  0
 13 15  1  0  0  0  0
 14 16  1  0  0  0  0
 15 17  2  0  0  0  0
 16 18  1  0  0  0  0
 16 19  2  0  0  0  0
 18 20  1  0  0  0  0
 18 21  2  0  0  0  0
 20 22  1  0  0  0  0
 21 23  1  0  0  0  0
 22 24  1  0  0  0  0
 24 25  2  0  0  0  0
 24 26  1  0  0  0  0
 25 27  1  0  0  0  0
 26 28  2  0  0  0  0
 27 29  1  0  0  0  0
 28 30  1  0  0  0  0
 30 31  1  0  0  0  0
 30 32  1  0  0  0  0
 30 33  1  0  0  0  0
  6  7  1  0  0  0  0
 17 19  1  0  0  0  0
 22 23  2  0  0  0  0
 27 28  1  0  0  0  0
M  END
>  <MolRegNo>
348389

>  <m>
=

>  <Value>
10000

>  <Unit>
nM

>  <Type>
IC50

>  <Ligand Efficiency>
0.21

>  <Binding Efficiency>
9.80

>  <Surface Efficiency>
6.88

>  <Assay Index>
262926

>  <Assay Category>


>  <Assay Organism>
SARS coronavirus

>  <Target ID>
20012

>  <Target Name>
SARS coronavirus 3C-like proteinase

>  <Target Organism>
SARS coronavirus

>  <Target Description>
Target is a single protein chain

>  <Sequence Accession>
P0C6U8

>  <Reference>
J. Med. Chem. 49 (12), 3485-3495 (2006)

>  <Pubmed ID>
16759091

>  <DOI>
10.1021/jm050852f

>  <InChI-Key>
AWQBIBTZJKFLEW-UHFFFAOYSA-N

>  <Molecular Formula>
C21H15N5OClF3S2

>  <Monoisotopic Mass>
509.035861

>  <Druglikeness>
-1.6531

$$$$
Compound 28
Actelion Java MolfileCreator 1.0

 19 21  0  0  0  0  0  0  0  0999 V2000
    0.0000   -0.0000   -0.0000 Cl  0  0  0  0  0  0  0  0  0  0  0  0
   -1.2967   -0.7544   -0.0000 C   0  0  0  0  0  0  0  0  0  0  0  0
   -1.2967   -2.2398   -0.0000 C   0  0  0  0  0  0  0  0  0  0  0  0
   -2.6170   -0.0118   -0.0000 C   0  0  0  0  0  0  0  0  0  0  0  0
   -2.5934   -2.9824   -0.0000 C   0  0  0  0  0  0  0  0  0  0  0  0
   -3.9137   -0.7662   -0.0000 C   0  0  0  0  0  0  0  0  0  0  0  0
   -3.9019   -2.2398   -0.0000 C   0  0  0  0  0  0  0  0  0  0  0  0
   -5.1986   -2.9942   -0.0000 C   0  0  0  0  0  0  0  0  0  0  0  0
   -5.3519   -4.4677   -0.0000 N   0  0  0  0  0  0  0  0  0  0  0  0
   -6.5778   -2.3930   -0.0000 N   0  0  0  0  0  0  0  0  0  0  0  0
   -6.8254   -4.7860   -0.0000 O   0  0  0  0  0  0  0  0  0  0  0  0
   -7.5798   -3.5011   -0.0000 C   0  0  0  0  0  0  0  0  0  0  0  0
   -9.0769   -3.3479   -0.0000 C   0  0  0  0  0  0  0  0  0  0  0  0
   -9.7135   -1.9804   -0.0000 S   0  0  0  0  0  0  0  0  0  0  0  0
  -11.2106   -1.8272   -0.0000 C   0  0  0  0  0  0  0  0  0  0  0  0
  -12.2126   -2.9353   -0.0000 N   0  0  0  0  0  0  0  0  0  0  0  0
  -11.9886   -0.5187   -0.0000 N   0  0  0  0  0  0  0  0  0  0  0  0
  -13.5918   -2.3341   -0.0000 C   0  0  0  0  0  0  0  0  0  0  0  0
  -13.4622   -0.8370   -0.0000 C   0  0  0  0  0  0  0  0  0  0  0  0
  1  2  1  0  0  0  0
  2  3  2  0  0  0  0
  2  4  1  0  0  0  0
  3  5  1  0  0  0  0
  4  6  2  0  0  0  0
  5  7  2  0  0  0  0
  7  8  1  0  0  0  0
  8  9  2  0  0  0  0
  8 10  1  0  0  0  0
  9 11  1  0  0  0  0
 10 12  2  0  0  0  0
 12 13  1  0  0  0  0
 13 14  1  0  0  0  0
 14 15  1  0  0  0  0
 15 16  2  0  0  0  0
 15 17  1  0  0  0  0
 16 18  1  0  0  0  0
 17 19  1  0  0  0  0
  6  7  1  0  0  0  0
 11 12  1  0  0  0  0
 18 19  1  0  0  0  0
M  END
>  <MolRegNo>
356445

>  <m>
=

>  <Value>
61

>  <Unit>
%

>  <Type>
Inhibition

>  <Ligand Efficiency>


>  <Binding Efficiency>


>  <Surface Efficiency>


>  <Assay Index>
266028

>  <Assay Category>


>  <Assay Organism>
SARS coronavirus

>  <Target ID>
20012

>  <Target Name>
SARS coronavirus 3C-like proteinase

>  <Target Organism>
SARS coronavirus

>  <Target Description>
Target is a single protein chain

>  <Sequence Accession>
P0C6U8

>  <Reference>
J. Med. Chem. 49 (17), 5154-5161 (2006)

>  <Pubmed ID>
16913704

>  <DOI>
10.1021/jm060207o

>  <InChI-Key>
BAPHIXKOPMJNFJ-UHFFFAOYSA-N

>  <Molecular Formula>
C12H11N4OClS

>  <Monoisotopic Mass>
294.034208

>  <Druglikeness>
4.1647

$$$$
Compound 29
Actelion Java MolfileCreator 1.0

 27 29  0  0  0  0  0  0  0  0999 V2000
    0.0000   -0.0000   -0.0000 S   0  0  0  0  0  0  0  0  0  0  0  0
    1.4551    0.3403   -0.0000 C   0  0  0  0  0  0  0  0  0  0  0  0
   -0.7628    1.3026   -0.0000 C   0  0  0  0  0  0  0  0  0  0  0  0
    2.5700   -0.6454   -0.0000 C   0  0  0  0  0  0  0  0  0  0  0  0
    1.5842    1.8424   -0.0000 C   0  0  0  0  0  0  0  0  0  0  0  0
   -2.2649    1.4551   -0.0000 C   0  0  0  0  0  0  0  0  0  0  0  0
    0.2112    2.4409   -0.0000 C   0  0  0  0  0  0  0  0  0  0  0  0
    4.0251   -0.3051   -0.0000 N   0  0  0  0  0  0  0  0  0  0  0  0
    2.4174   -2.1240   -0.0000 C   0  0  0  0  0  0  0  0  0  0  0  0
   -3.1450    0.2464   -0.0000 O   0  0  0  0  0  0  0  0  0  0  0  0
   -2.8986    2.8281   -0.0000 N   0  0  0  0  0  0  0  0  0  0  0  0
    4.7762   -1.5842   -0.0000 N   0  0  0  0  0  0  0  0  0  0  0  0
    4.6119    1.0796   -0.0000 C   0  0  0  0  0  0  0  0  0  0  0  0
    3.7787   -2.7108   -0.0000 C   0  0  0  0  0  0  0  0  0  0  0  0
   -4.4006    2.9807   -0.0000 C   0  0  0  0  0  0  0  0  0  0  0  0
    4.0955   -4.1659   -0.0000 C   0  0  0  0  0  0  0  0  0  0  0  0
   -5.4099    1.8659   -0.0000 O   0  0  0  0  0  0  0  0  0  0  0  0
   -5.1752    4.2833   -0.0000 C   0  0  0  0  0  0  0  0  0  0  0  0
    4.4593   -5.5976   -0.0000 F   0  0  0  0  0  0  0  0  0  0  0  0
    2.6286   -4.5063   -0.0000 F   0  0  0  0  0  0  0  0  0  0  0  0
    5.5389   -3.8139   -0.0000 F   0  0  0  0  0  0  0  0  0  0  0  0
   -6.7829    2.4761   -0.0000 N   0  0  0  0  0  0  0  0  0  0  0  0
   -4.5884    5.6680   -0.0000 N   0  0  0  0  0  0  0  0  0  0  0  0
   -6.6538    3.9664   -0.0000 C   0  0  0  0  0  0  0  0  0  0  0  0
   -5.4920    6.9002   -0.0000 O   0  0  0  0  0  0  0  0  0  0  0  0
   -3.1098    5.8441   -0.0000 O   0  0  0  0  0  0  0  0  0  0  0  0
   -7.7921    4.9639   -0.0000 C   0  0  0  0  0  0  0  0  0  0  0  0
  1  2  1  0  0  0  0
  1  3  1  0  0  0  0
  2  4  1  0  0  0  0
  2  5  2  0  0  0  0
  3  6  1  0  0  0  0
  3  7  2  0  0  0  0
  4  8  1  0  0  0  0
  4  9  2  0  0  0  0
  6 10  2  0  0  0  0
  6 11  1  0  0  0  0
  8 12  1  0  0  0  0
  8 13  1  0  0  0  0
  9 14  1  0  0  0  0
 11 15  1  0  0  0  0
 14 16  1  0  0  0  0
 15 17  1  0  0  0  0
 15 18  2  0  0  0  0
 16 19  1  0  0  0  0
 16 20  1  0  0  0  0
 16 21  1  0  0  0  0
 17 22  1  0  0  0  0
 18 23  1  0  0  0  0
 18 24  1  0  0  0  0
 23 25  2  0  0  0  0
 23 26  1  0  0  0  0
 24 27  1  0  0  0  0
  5  7  1  0  0  0  0
 12 14  2  0  0  0  0
 22 24  2  0  0  0  0
M  CHG  2  23   1  26  -1
M  END
>  <MolRegNo>
356300

>  <m>
=

>  <Value>
5000

>  <Unit>
nM

>  <Type>
IC50

>  <Ligand Efficiency>
0.27

>  <Binding Efficiency>
13.21

>  <Surface Efficiency>
4.57

>  <Assay Index>
266027

>  <Assay Category>


>  <Assay Organism>
SARS coronavirus

>  <Target ID>
20012

>  <Target Name>
SARS coronavirus 3C-like proteinase

>  <Target Organism>
SARS coronavirus

>  <Target Description>
Target is a single protein chain

>  <Sequence Accession>
P0C6U8

>  <Reference>
J. Med. Chem. 49 (17), 5154-5161 (2006)

>  <Pubmed ID>
16913704

>  <DOI>
10.1021/jm060207o

>  <InChI-Key>
BCEDEDBQGPNQMM-UHFFFAOYSA-N

>  <Molecular Formula>
C14H10N5O4F3S

>  <Monoisotopic Mass>
401.040559

>  <Druglikeness>
-10.372

$$$$
Compound 30
Actelion Java MolfileCreator 1.0

 25 28  0  0  0  0  0  0  0  0999 V2000
    0.0000   -0.0000   -0.0000 S   0  0  0  0  0  0  0  0  0  0  0  0
   -1.2146   -0.8693   -0.0000 C   0  0  0  0  0  0  0  0  0  0  0  0
   -0.4763    1.4408   -0.0000 C   0  0  0  0  0  0  0  0  0  0  0  0
   -2.4530    0.0119   -0.0000 N   0  0  0  0  0  0  0  0  0  0  0  0
   -1.2265   -2.3577   -0.0000 C   0  0  0  0  0  0  0  0  0  0  0  0
   -1.9886    1.4527   -0.0000 C   0  0  0  0  0  0  0  0  0  0  0  0
   -3.8938   -0.4525   -0.0000 C   0  0  0  0  0  0  0  0  0  0  0  0
   -2.5363   -3.0960   -0.0000 C   0  0  0  0  0  0  0  0  0  0  0  0
    0.0595   -3.0960   -0.0000 C   0  0  0  0  0  0  0  0  0  0  0  0
   -2.8817    2.6792   -0.0000 O   0  0  0  0  0  0  0  0  0  0  0  0
   -4.2034   -1.9052   -0.0000 N   0  0  0  0  0  0  0  0  0  0  0  0
   -5.0250    0.5597   -0.0000 C   0  0  0  0  0  0  0  0  0  0  0  0
   -2.5482   -4.5845   -0.0000 C   0  0  0  0  0  0  0  0  0  0  0  0
    0.0476   -4.5964   -0.0000 C   0  0  0  0  0  0  0  0  0  0  0  0
   -5.6323   -2.3696   -0.0000 C   0  0  0  0  0  0  0  0  0  0  0  0
   -6.4659    0.0953   -0.0000 C   0  0  0  0  0  0  0  0  0  0  0  0
   -1.2622   -5.3227   -0.0000 C   0  0  0  0  0  0  0  0  0  0  0  0
   -6.7755   -1.3575   -0.0000 C   0  0  0  0  0  0  0  0  0  0  0  0
   -5.9419   -3.8343   -0.0000 C   0  0  0  0  0  0  0  0  0  0  0  0
   -1.2741   -6.8112   -0.0000 C   0  0  0  0  0  0  0  0  0  0  0  0
    0.0119   -7.5376   -0.0000 C   0  0  0  0  0  0  0  0  0  0  0  0
   -2.5840   -7.5495   -0.0000 C   0  0  0  0  0  0  0  0  0  0  0  0
    0.0000   -9.0260   -0.0000 N   0  0  0  0  0  0  0  0  0  0  0  0
   -2.5959   -9.0379   -0.0000 C   0  0  0  0  0  0  0  0  0  0  0  0
   -1.3218   -9.7762   -0.0000 C   0  0  0  0  0  0  0  0  0  0  0  0
  1  2  1  0  0  0  0
  1  3  1  0  0  0  0
  2  4  1  0  0  0  0
  2  5  1  0  0  0  0
  3  6  1  0  0  0  0
  4  7  1  0  0  0  0
  5  8  2  0  0  0  0
  5  9  1  0  0  0  0
  6 10  2  0  0  0  0
  7 11  2  0  0  0  0
  7 12  1  0  0  0  0
  8 13  1  0  0  0  0
  9 14  2  0  0  0  0
 11 15  1  0  0  0  0
 12 16  2  0  0  0  0
 13 17  2  0  0  0  0
 15 18  2  0  0  0  0
 15 19  1  0  0  0  0
 17 20  1  0  0  0  0
 20 21  2  0  0  0  0
 20 22  1  0  0  0  0
 21 23  1  0  0  0  0
 22 24  2  0  0  0  0
 23 25  2  0  0  0  0
  4  6  1  0  0  0  0
 14 17  1  0  0  0  0
 16 18  1  0  0  0  0
 24 25  1  0  0  0  0
M  END
>  <MolRegNo>
452854

>  <m>
<=

>  <Value>
50

>  <Unit>
%

>  <Type>
Inhibition

>  <Ligand Efficiency>


>  <Binding Efficiency>


>  <Surface Efficiency>


>  <Assay Index>
406904

>  <Assay Category>


>  <Assay Organism>
SARS coronavirus

>  <Target ID>
101075

>  <Target Name>
Replicase polyprotein 1ab

>  <Target Organism>
SARS coronavirus

>  <Target Description>
Target is a single protein chain

>  <Sequence Accession>
P0C6X7

>  <Reference>
Bioorg. Med. Chem. Lett. 18 (23), 6110-6114 (2008)

>  <Pubmed ID>
18947995

>  <DOI>
10.1016/j.bmcl.2008.10.023

>  <InChI-Key>
BCSIDRMKCDVYDX-UHFFFAOYSA-N

>  <Molecular Formula>
C20H17N3OS

>  <Monoisotopic Mass>
347.109232

>  <Druglikeness>
2.7403

$$$$
Compound 31
Actelion Java MolfileCreator 1.0

 15 15  0  0  1  0  0  0  0  0999 V2000
    0.0000   -0.0000   -0.0000 O   0  0  0  0  0  0  0  0  0  0  0  0
   -0.0118    1.5068   -0.0000 C   0  0  0  0  0  0  0  0  0  0  0  0
    1.2714    2.2602   -0.0000 O   0  0  0  0  0  0  0  0  0  0  0  0
   -1.3185    2.2720   -0.0000 C   0  0  0  0  0  0  0  0  0  0  0  0
    2.5545    1.5186   -0.0000 C   0  0  0  0  0  0  0  0  0  0  0  0
   -2.0719    3.5787   -0.0000 N   0  0  0  0  0  0  0  0  0  0  0  0
   -2.8253    2.2838   -0.0000 C   0  0  0  0  0  0  0  0  0  0  0  0
   -2.0837    5.0855   -0.0000 C   0  0  0  0  0  0  0  0  0  0  0  0
   -3.3903    5.8389   -0.0000 C   0  0  0  0  0  0  0  0  0  0  0  0
   -0.8005    5.8389   -0.0000 C   0  0  0  0  0  0  0  0  0  0  0  0
   -4.6970    5.0973   -0.0000 O   0  0  0  0  0  0  0  0  0  0  0  0
   -3.4021    7.3458   -0.0000 O   0  0  0  0  0  0  0  0  0  0  0  0
   -0.8123    7.3458   -0.0000 C   0  0  0  0  0  0  0  0  0  0  0  0
    0.4827    5.0973   -0.0000 C   0  0  0  0  0  0  0  0  0  0  0  0
   -2.1190    8.1109   -0.0000 C   0  0  0  0  0  0  0  0  0  0  0  0
  1  2  2  0  0  0  0
  2  3  1  0  0  0  0
  2  4  1  0  0  0  0
  3  5  1  0  0  0  0
  4  6  1  0  0  0  0
  4  7  1  0  0  0  0
  8  6  1  6  0  0  0
  8  9  1  0  0  0  0
  8 10  1  0  0  0  0
  9 11  2  0  0  0  0
  9 12  1  0  0  0  0
 10 13  1  0  0  0  0
 10 14  1  0  0  0  0
 12 15  1  0  0  0  0
  6  7  1  0  0  0  0
M  END
>  <MolRegNo>
333621

>  <m>
=

>  <Value>
30

>  <Unit>
%

>  <Type>
Inhibition

>  <Ligand Efficiency>


>  <Binding Efficiency>


>  <Surface Efficiency>


>  <Assay Index>
254531

>  <Assay Category>


>  <Assay Organism>
SARS coronavirus

>  <Target ID>
20012

>  <Target Name>
SARS coronavirus 3C-like proteinase

>  <Target Organism>
SARS coronavirus

>  <Target Description>
Target is a single protein chain

>  <Sequence Accession>
P0C6U8

>  <Reference>
Bioorg. Med. Chem. Lett. 15 (24), 5365-5369 (2005)

>  <Pubmed ID>
16216498

>  <DOI>
10.1016/j.bmcl.2005.09.012

>  <InChI-Key>
BCTWIURBSTWDKB-KAIZJQOQSA-N

>  <Molecular Formula>
C10H17NO4

>  <Monoisotopic Mass>
215.115759

>  <Druglikeness>
0.3056

$$$$
Compound 32
Actelion Java MolfileCreator 1.0

 24 27  0  0  0  0  0  0  0  0999 V2000
    0.0000   -0.0000   -0.0000 S   0  0  0  0  0  0  0  0  0  0  0  0
    1.2891   -0.7400   -0.0000 C   0  0  0  0  0  0  0  0  0  0  0  0
   -1.1220   -1.0145   -0.0000 C   0  0  0  0  0  0  0  0  0  0  0  0
    0.9549   -2.1962   -0.0000 C   0  0  0  0  0  0  0  0  0  0  0  0
    2.6855   -0.2745   -0.0000 C   0  0  0  0  0  0  0  0  0  0  0  0
   -0.5252   -2.3633   -0.0000 C   0  0  0  0  0  0  0  0  0  0  0  0
   -2.6020   -0.6803   -0.0000 C   0  0  0  0  0  0  0  0  0  0  0  0
    2.0529   -3.1868   -0.0000 C   0  0  0  0  0  0  0  0  0  0  0  0
    3.7836   -1.2652   -0.0000 C   0  0  0  0  0  0  0  0  0  0  0  0
   -3.0794    0.7639   -0.0000 N   0  0  0  0  0  0  0  0  0  0  0  0
    3.4613   -2.7094   -0.0000 C   0  0  0  0  0  0  0  0  0  0  0  0
   -2.2081    1.9813   -0.0000 C   0  0  0  0  0  0  0  0  0  0  0  0
   -4.5117    1.2294   -0.0000 C   0  0  0  0  0  0  0  0  0  0  0  0
   -0.7161    1.9933   -0.0000 O   0  0  0  0  0  0  0  0  0  0  0  0
   -3.1033    3.2226   -0.0000 C   0  0  0  0  0  0  0  0  0  0  0  0
   -5.8246    0.4894   -0.0000 C   0  0  0  0  0  0  0  0  0  0  0  0
   -4.5236    2.7452   -0.0000 C   0  0  0  0  0  0  0  0  0  0  0  0
   -2.6497    4.6549   -0.0000 O   0  0  0  0  0  0  0  0  0  0  0  0
   -5.8246   -1.0145   -0.0000 N   0  0  0  0  0  0  0  0  0  0  0  0
   -7.1375    1.2532   -0.0000 C   0  0  0  0  0  0  0  0  0  0  0  0
   -5.8365    3.5091   -0.0000 C   0  0  0  0  0  0  0  0  0  0  0  0
   -4.5355   -1.7545   -0.0000 O   0  0  0  0  0  0  0  0  0  0  0  0
   -7.1375   -1.7545   -0.0000 O   0  0  0  0  0  0  0  0  0  0  0  0
   -7.1495    2.7691   -0.0000 C   0  0  0  0  0  0  0  0  0  0  0  0
  1  2  1  0  0  0  0
  1  3  1  0  0  0  0
  2  4  2  0  0  0  0
  2  5  1  0  0  0  0
  3  6  2  0  0  0  0
  3  7  1  0  0  0  0
  4  8  1  0  0  0  0
  5  9  2  0  0  0  0
  7 10  1  0  0  0  0
  8 11  2  0  0  0  0
 10 12  1  0  0  0  0
 10 13  1  0  0  0  0
 12 14  2  0  0  0  0
 12 15  1  0  0  0  0
 13 16  2  0  0  0  0
 13 17  1  0  0  0  0
 15 18  2  0  0  0  0
 16 19  1  0  0  0  0
 16 20  1  0  0  0  0
 17 21  2  0  0  0  0
 19 22  2  0  0  0  0
 19 23  1  0  0  0  0
 20 24  2  0  0  0  0
  4  6  1  0  0  0  0
  9 11  1  0  0  0  0
 15 17  1  0  0  0  0
 21 24  1  0  0  0  0
M  CHG  2  19   1  23  -1
M  END
>  <MolRegNo>
317000

>  <m>
=

>  <Value>
2000

>  <Unit>
nM

>  <Type>
IC50

>  <Ligand Efficiency>
0.32

>  <Binding Efficiency>
16.84

>  <Surface Efficiency>
7.08

>  <Assay Index>
238671

>  <Assay Category>


>  <Assay Organism>
SARS coronavirus

>  <Target ID>
20012

>  <Target Name>
SARS coronavirus 3C-like proteinase

>  <Target Organism>
SARS coronavirus

>  <Target Description>
Target is a single protein chain

>  <Sequence Accession>
P0C6U8

>  <Reference>
Bioorg. Med. Chem. Lett. 15 (12), 3058-3062 (2005)

>  <Pubmed ID>
15896959

>  <DOI>
10.1016/j.bmcl.2005.04.027

>  <InChI-Key>
BEXUOOJPJCTWKL-UHFFFAOYSA-N

>  <Molecular Formula>
C17H10N2O4S

>  <Monoisotopic Mass>
338.036128

>  <Druglikeness>
-3.8239

$$$$
Compound 33
Actelion Java MolfileCreator 1.0

 24 26  0  0  0  0  0  0  0  0999 V2000
    0.0000   -0.0000   -0.0000 O   0  0  0  0  0  0  0  0  0  0  0  0
   -1.0828    0.6205   -0.0000 C   0  0  0  0  0  0  0  0  0  0  0  0
   -1.0950    2.1778   -0.0000 N   0  0  0  0  0  0  0  0  0  0  0  0
   -2.4333   -0.1460   -0.0000 C   0  0  0  0  0  0  0  0  0  0  0  0
    0.2312    2.9687   -0.0000 C   0  0  0  0  0  0  0  0  0  0  0  0
   -2.4455   -1.6790   -0.0000 C   0  0  0  0  0  0  0  0  0  0  0  0
   -3.7839    0.6327   -0.0000 C   0  0  0  0  0  0  0  0  0  0  0  0
    0.2190    4.5260   -0.0000 C   0  0  0  0  0  0  0  0  0  0  0  0
    1.2897    2.3725   -0.0000 C   0  0  0  0  0  0  0  0  0  0  0  0
   -3.7960   -2.4455   -0.0000 C   0  0  0  0  0  0  0  0  0  0  0  0
   -1.3870   -2.2873   -0.0000 C   0  0  0  0  0  0  0  0  0  0  0  0
   -5.1344   -0.1338   -0.0000 C   0  0  0  0  0  0  0  0  0  0  0  0
    1.5452    5.3047   -0.0000 C   0  0  0  0  0  0  0  0  0  0  0  0
   -1.1437    5.3047   -0.0000 C   0  0  0  0  0  0  0  0  0  0  0  0
   -5.1465   -1.6668   -0.0000 C   0  0  0  0  0  0  0  0  0  0  0  0
   -6.4849    0.6448   -0.0000 C   0  0  0  0  0  0  0  0  0  0  0  0
    1.5330    6.8620   -0.0000 C   0  0  0  0  0  0  0  0  0  0  0  0
    2.8713    4.5504   -0.0000 C   0  0  0  0  0  0  0  0  0  0  0  0
   -1.1558    6.8620   -0.0000 C   0  0  0  0  0  0  0  0  0  0  0  0
   -7.5677    0.0365   -0.0000 N   0  0  0  0  0  0  0  0  0  0  0  0
    0.1825    7.6407   -0.0000 C   0  0  0  0  0  0  0  0  0  0  0  0
    2.8592    7.6407   -0.0000 C   0  0  0  0  0  0  0  0  0  0  0  0
    4.1975    5.3290   -0.0000 C   0  0  0  0  0  0  0  0  0  0  0  0
    4.1854    6.8864   -0.0000 C   0  0  0  0  0  0  0  0  0  0  0  0
  1  2  2  0  0  0  0
  2  3  1  0  0  0  0
  2  4  1  0  0  0  0
  5  3  1  6  0  0  0
  4  6  2  0  0  0  0
  4  7  1  0  0  0  0
  5  8  1  0  0  0  0
  5  9  1  0  0  0  0
  6 10  1  0  0  0  0
  6 11  1  0  0  0  0
  7 12  2  0  0  0  0
  8 13  1  0  0  0  0
  8 14  2  0  0  0  0
 10 15  2  0  0  0  0
 12 16  1  0  0  0  0
 13 17  1  0  0  0  0
 13 18  2  0  0  0  0
 14 19  1  0  0  0  0
 16 20  1  0  0  0  0
 17 21  1  0  0  0  0
 17 22  2  0  0  0  0
 18 23  1  0  0  0  0
 22 24  1  0  0  0  0
 12 15  1  0  0  0  0
 19 21  2  0  0  0  0
 23 24  2  0  0  0  0
M  END
>  <MolRegNo>
555133

>  <m>
=

>  <Value>
6000

>  <Unit>
nM

>  <Type>
EC50

>  <Ligand Efficiency>


>  <Binding Efficiency>


>  <Surface Efficiency>


>  <Assay Index>
425462

>  <Assay Category>


>  <Assay Organism>
SARS coronavirus

>  <Target ID>
100499

>  <Target Name>
SARS coronavirus

>  <Target Organism>
SARS coronavirus

>  <Target Description>
Target is a complete organism

>  <Sequence Accession>


>  <Reference>
J. Med. Chem. 52 (16), 5228-5240 (2009)

>  <Pubmed ID>
19645480

>  <DOI>
10.1021/jm900611t

>  <InChI-Key>
BIKTWHWUIKAJAT-HNNXBMFYSA-N

>  <Molecular Formula>
C21H22N2O

>  <Monoisotopic Mass>
318.173213

>  <Druglikeness>
2.3129

$$$$
Compound 34
Actelion Java MolfileCreator 1.0

 30 33  0  0  0  0  0  0  0  0999 V2000
    0.0000   -0.0000   -0.0000 O   0  0  0  0  0  0  0  0  0  0  0  0
   -0.0118    1.5087   -0.0000 C   0  0  0  0  0  0  0  0  0  0  0  0
    1.2729    2.2630   -0.0000 N   0  0  0  0  0  0  0  0  0  0  0  0
   -1.3201    2.2630   -0.0000 C   0  0  0  0  0  0  0  0  0  0  0  0
    2.5577    1.5322   -0.0000 C   0  0  0  0  0  0  0  0  0  0  0  0
   -2.6284    1.5322   -0.0000 C   0  0  0  0  0  0  0  0  0  0  0  0
   -1.3319    3.7717   -0.0000 C   0  0  0  0  0  0  0  0  0  0  0  0
    3.8424    2.2866   -0.0000 C   0  0  0  0  0  0  0  0  0  0  0  0
   -3.9367    2.2866   -0.0000 C   0  0  0  0  0  0  0  0  0  0  0  0
   -2.6402    4.5378   -0.0000 C   0  0  0  0  0  0  0  0  0  0  0  0
    5.1271    1.5558   -0.0000 C   0  0  0  0  0  0  0  0  0  0  0  0
    3.8306    3.7952   -0.0000 C   0  0  0  0  0  0  0  0  0  0  0  0
   -3.9485    3.7952   -0.0000 N   0  0  0  0  0  0  0  0  0  0  0  0
    6.4118    2.3101   -0.0000 C   0  0  0  0  0  0  0  0  0  0  0  0
    5.1153    4.5613   -0.0000 C   0  0  0  0  0  0  0  0  0  0  0  0
   -5.2567    4.5613   -0.0000 C   0  0  0  0  0  0  0  0  0  0  0  0
    7.6965    1.5794   -0.0000 O   0  0  0  0  0  0  0  0  0  0  0  0
    6.4000    3.8188   -0.0000 C   0  0  0  0  0  0  0  0  0  0  0  0
   -6.5650    3.8188   -0.0000 C   0  0  0  0  0  0  0  0  0  0  0  0
   -5.2685    6.0700   -0.0000 C   0  0  0  0  0  0  0  0  0  0  0  0
    7.6847    0.0943   -0.0000 C   0  0  0  0  0  0  0  0  0  0  0  0
   -7.8733    4.5849   -0.0000 C   0  0  0  0  0  0  0  0  0  0  0  0
   -6.5768    2.3337   -0.0000 C   0  0  0  0  0  0  0  0  0  0  0  0
   -9.1816    3.8424   -0.0000 C   0  0  0  0  0  0  0  0  0  0  0  0
   -7.8851    1.6030   -0.0000 C   0  0  0  0  0  0  0  0  0  0  0  0
   -9.1934    2.3573   -0.0000 C   0  0  0  0  0  0  0  0  0  0  0  0
  -10.4899    4.6085   -0.0000 C   0  0  0  0  0  0  0  0  0  0  0  0
  -10.5017    1.6265   -0.0000 C   0  0  0  0  0  0  0  0  0  0  0  0
  -11.7982    3.8777   -0.0000 C   0  0  0  0  0  0  0  0  0  0  0  0
  -11.8100    2.3809   -0.0000 C   0  0  0  0  0  0  0  0  0  0  0  0
  1  2  2  0  0  0  0
  2  3  1  0  0  0  0
  2  4  1  0  0  0  0
  3  5  1  0  0  0  0
  4  6  1  0  0  0  0
  4  7  1  0  0  0  0
  5  8  1  0  0  0  0
  6  9  1  0  0  0  0
  7 10  1  0  0  0  0
  8 11  2  0  0  0  0
  8 12  1  0  0  0  0
  9 13  1  0  0  0  0
 11 14  1  0  0  0  0
 12 15  2  0  0  0  0
 16 13  1  6  0  0  0
 14 17  1  0  0  0  0
 14 18  2  0  0  0  0
 16 19  1  0  0  0  0
 16 20  1  0  0  0  0
 17 21  1  0  0  0  0
 19 22  2  0  0  0  0
 19 23  1  0  0  0  0
 22 24  1  0  0  0  0
 23 25  2  0  0  0  0
 24 26  1  0  0  0  0
 24 27  2  0  0  0  0
 26 28  2  0  0  0  0
 27 29  1  0  0  0  0
 28 30  1  0  0  0  0
 10 13  1  0  0  0  0
 15 18  1  0  0  0  0
 25 26  1  0  0  0  0
 29 30  2  0  0  0  0
M  END
>  <MolRegNo>
650730

>  <m>
>

>  <Value>
25000

>  <Unit>
nM

>  <Type>
EC50

>  <Ligand Efficiency>


>  <Binding Efficiency>


>  <Surface Efficiency>


>  <Assay Index>
486973

>  <Assay Category>


>  <Assay Organism>
SARS coronavirus

>  <Target ID>
100499

>  <Target Name>
SARS coronavirus

>  <Target Organism>
SARS coronavirus

>  <Target Description>
Target is a complete organism

>  <Sequence Accession>


>  <Reference>
J. Med. Chem. 53 (13), 4968-4979 (2010)

>  <Pubmed ID>
20527968

>  <DOI>
10.1021/jm1004489

>  <InChI-Key>
BIQUQYCSENVAEU-IBGZPJMESA-N

>  <Molecular Formula>
C26H30N2O2

>  <Monoisotopic Mass>
402.230728

>  <Druglikeness>
6.7431

$$$$
Compound 35
Actelion Java MolfileCreator 1.0

 30 33  0  0  0  0  0  0  0  0999 V2000
    0.0000   -0.0000   -0.0000 Cl  0  0  0  0  0  0  0  0  0  0  0  0
    1.2915   -0.7465   -0.0000 C   0  0  0  0  0  0  0  0  0  0  0  0
    2.5830    0.0237   -0.0000 C   0  0  0  0  0  0  0  0  0  0  0  0
    1.2796   -2.2394   -0.0000 C   0  0  0  0  0  0  0  0  0  0  0  0
    3.8745   -0.7228   -0.0000 C   0  0  0  0  0  0  0  0  0  0  0  0
    2.5711   -2.9858   -0.0000 C   0  0  0  0  0  0  0  0  0  0  0  0
    3.8626   -2.2157   -0.0000 C   0  0  0  0  0  0  0  0  0  0  0  0
    5.1660    0.0474   -0.0000 C   0  0  0  0  0  0  0  0  0  0  0  0
    6.4575   -0.6991   -0.0000 O   0  0  0  0  0  0  0  0  0  0  0  0
    7.7490    0.0711   -0.0000 C   0  0  0  0  0  0  0  0  0  0  0  0
    9.0405   -0.6754   -0.0000 C   0  0  0  0  0  0  0  0  0  0  0  0
    7.7371    1.5877   -0.0000 C   0  0  0  0  0  0  0  0  0  0  0  0
   10.3320    0.0948   -0.0000 C   0  0  0  0  0  0  0  0  0  0  0  0
    9.0286    2.3579   -0.0000 C   0  0  0  0  0  0  0  0  0  0  0  0
   11.6235   -0.6517   -0.0000 O   0  0  0  0  0  0  0  0  0  0  0  0
   10.3201    1.6114   -0.0000 C   0  0  0  0  0  0  0  0  0  0  0  0
    9.0168    3.8745   -0.0000 O   0  0  0  0  0  0  0  0  0  0  0  0
   12.9150    0.1185   -0.0000 C   0  0  0  0  0  0  0  0  0  0  0  0
   11.6116    2.3816   -0.0000 C   0  0  0  0  0  0  0  0  0  0  0  0
   12.9031    1.6351   -0.0000 C   0  0  0  0  0  0  0  0  0  0  0  0
   14.2065   -0.6280   -0.0000 C   0  0  0  0  0  0  0  0  0  0  0  0
   11.5998    3.8982   -0.0000 O   0  0  0  0  0  0  0  0  0  0  0  0
   14.1946    2.4053   -0.0000 O   0  0  0  0  0  0  0  0  0  0  0  0
   15.4980    0.1422   -0.0000 C   0  0  0  0  0  0  0  0  0  0  0  0
   14.1946   -2.1209   -0.0000 C   0  0  0  0  0  0  0  0  0  0  0  0
   16.7895   -0.6043   -0.0000 C   0  0  0  0  0  0  0  0  0  0  0  0
   15.4861   -2.8674   -0.0000 C   0  0  0  0  0  0  0  0  0  0  0  0
   18.0810    0.1659   -0.0000 O   0  0  0  0  0  0  0  0  0  0  0  0
   16.7776   -2.0972   -0.0000 C   0  0  0  0  0  0  0  0  0  0  0  0
   18.0691   -2.8437   -0.0000 O   0  0  0  0  0  0  0  0  0  0  0  0
  1  2  1  0  0  0  0
  2  3  2  0  0  0  0
  2  4  1  0  0  0  0
  3  5  1  0  0  0  0
  4  6  2  0  0  0  0
  5  7  2  0  0  0  0
  5  8  1  0  0  0  0
  8  9  1  0  0  0  0
  9 10  1  0  0  0  0
 10 11  2  0  0  0  0
 10 12  1  0  0  0  0
 11 13  1  0  0  0  0
 12 14  2  0  0  0  0
 13 15  1  0  0  0  0
 13 16  2  0  0  0  0
 14 17  1  0  0  0  0
 15 18  1  0  0  0  0
 16 19  1  0  0  0  0
 18 20  2  0  0  0  0
 18 21  1  0  0  0  0
 19 22  2  0  0  0  0
 20 23  1  0  0  0  0
 21 24  2  0  0  0  0
 21 25  1  0  0  0  0
 24 26  1  0  0  0  0
 25 27  2  0  0  0  0
 26 28  1  0  0  0  0
 26 29  2  0  0  0  0
 29 30  1  0  0  0  0
  6  7  1  0  0  0  0
 14 16  1  0  0  0  0
 19 20  1  0  0  0  0
 27 29  1  0  0  0  0
M  END
>  <MolRegNo>
564247

>  <m>
>

>  <Value>
50000

>  <Unit>
nM

>  <Type>
IC50

>  <Ligand Efficiency>


>  <Binding Efficiency>


>  <Surface Efficiency>


>  <Assay Index>
426933

>  <Assay Category>


>  <Assay Organism>
SARS coronavirus

>  <Target ID>
101075

>  <Target Name>
Replicase polyprotein 1ab

>  <Target Organism>
SARS coronavirus

>  <Target Description>
Target is a single protein chain

>  <Sequence Accession>
P0C6X7

>  <Reference>
Bioorg. Med. Chem. Lett. 19 (16), 4538-4541 (2009)

>  <Pubmed ID>
19625187

>  <DOI>
10.1016/j.bmcl.2009.07.009

>  <InChI-Key>
BIVPHUOIFUDUSK-UHFFFAOYSA-N

>  <Molecular Formula>
C22H15O7Cl

>  <Monoisotopic Mass>
426.050632

>  <Druglikeness>
-0.12935

$$$$
Compound 36
Actelion Java MolfileCreator 1.0

 30 33  0  0  0  0  0  0  0  0999 V2000
    0.0000   -0.0000   -0.0000 Cl  0  0  0  0  0  0  0  0  0  0  0  0
    1.2915   -0.7465   -0.0000 C   0  0  0  0  0  0  0  0  0  0  0  0
    2.5830    0.0237   -0.0000 C   0  0  0  0  0  0  0  0  0  0  0  0
    1.2796   -2.2394   -0.0000 C   0  0  0  0  0  0  0  0  0  0  0  0
    3.8745   -0.7228   -0.0000 C   0  0  0  0  0  0  0  0  0  0  0  0
    2.5711   -2.9858   -0.0000 C   0  0  0  0  0  0  0  0  0  0  0  0
    3.8626   -2.2157   -0.0000 C   0  0  0  0  0  0  0  0  0  0  0  0
    5.1660    0.0474   -0.0000 C   0  0  0  0  0  0  0  0  0  0  0  0
    6.4575   -0.6991   -0.0000 O   0  0  0  0  0  0  0  0  0  0  0  0
    7.7490    0.0711   -0.0000 C   0  0  0  0  0  0  0  0  0  0  0  0
    9.0405   -0.6754   -0.0000 C   0  0  0  0  0  0  0  0  0  0  0  0
    7.7371    1.5877   -0.0000 C   0  0  0  0  0  0  0  0  0  0  0  0
   10.3320    0.0948   -0.0000 C   0  0  0  0  0  0  0  0  0  0  0  0
    9.0286    2.3579   -0.0000 C   0  0  0  0  0  0  0  0  0  0  0  0
   11.6235   -0.6517   -0.0000 O   0  0  0  0  0  0  0  0  0  0  0  0
   10.3201    1.6114   -0.0000 C   0  0  0  0  0  0  0  0  0  0  0  0
    9.0168    3.8745   -0.0000 O   0  0  0  0  0  0  0  0  0  0  0  0
   12.9150    0.1185   -0.0000 C   0  0  0  0  0  0  0  0  0  0  0  0
   11.6116    2.3816   -0.0000 C   0  0  0  0  0  0  0  0  0  0  0  0
   12.9031    1.6351   -0.0000 C   0  0  0  0  0  0  0  0  0  0  0  0
   14.2065   -0.6280   -0.0000 C   0  0  0  0  0  0  0  0  0  0  0  0
   11.5998    3.8982   -0.0000 O   0  0  0  0  0  0  0  0  0  0  0  0
   14.1946    2.4053   -0.0000 O   0  0  0  0  0  0  0  0  0  0  0  0
   15.4980    0.1422   -0.0000 C   0  0  0  0  0  0  0  0  0  0  0  0
   14.1946   -2.1209   -0.0000 C   0  0  0  0  0  0  0  0  0  0  0  0
   16.7895   -0.6043   -0.0000 C   0  0  0  0  0  0  0  0  0  0  0  0
   15.4861   -2.8674   -0.0000 C   0  0  0  0  0  0  0  0  0  0  0  0
   18.0810    0.1659   -0.0000 O   0  0  0  0  0  0  0  0  0  0  0  0
   16.7776   -2.0972   -0.0000 C   0  0  0  0  0  0  0  0  0  0  0  0
   18.0691   -2.8437   -0.0000 O   0  0  0  0  0  0  0  0  0  0  0  0
  1  2  1  0  0  0  0
  2  3  2  0  0  0  0
  2  4  1  0  0  0  0
  3  5  1  0  0  0  0
  4  6  2  0  0  0  0
  5  7  2  0  0  0  0
  5  8  1  0  0  0  0
  8  9  1  0  0  0  0
  9 10  1  0  0  0  0
 10 11  2  0  0  0  0
 10 12  1  0  0  0  0
 11 13  1  0  0  0  0
 12 14  2  0  0  0  0
 13 15  1  0  0  0  0
 13 16  2  0  0  0  0
 14 17  1  0  0  0  0
 15 18  1  0  0  0  0
 16 19  1  0  0  0  0
 18 20  2  0  0  0  0
 18 21  1  0  0  0  0
 19 22  2  0  0  0  0
 20 23  1  0  0  0  0
 21 24  2  0  0  0  0
 21 25  1  0  0  0  0
 24 26  1  0  0  0  0
 25 27  2  0  0  0  0
 26 28  1  0  0  0  0
 26 29  2  0  0  0  0
 29 30  1  0  0  0  0
  6  7  1  0  0  0  0
 14 16  1  0  0  0  0
 19 20  1  0  0  0  0
 27 29  1  0  0  0  0
M  END
>  <MolRegNo>
564247

>  <m>
=

>  <Value>
5200

>  <Unit>
nM

>  <Type>
IC50

>  <Ligand Efficiency>
0.24

>  <Binding Efficiency>
12.38

>  <Surface Efficiency>
4.39

>  <Assay Index>
426934

>  <Assay Category>


>  <Assay Organism>
SARS coronavirus

>  <Target ID>
101075

>  <Target Name>
Replicase polyprotein 1ab

>  <Target Organism>
SARS coronavirus

>  <Target Description>
Target is a single protein chain

>  <Sequence Accession>
P0C6X7

>  <Reference>
Bioorg. Med. Chem. Lett. 19 (16), 4538-4541 (2009)

>  <Pubmed ID>
19625187

>  <DOI>
10.1016/j.bmcl.2009.07.009

>  <InChI-Key>
BIVPHUOIFUDUSK-UHFFFAOYSA-N

>  <Molecular Formula>
C22H15O7Cl

>  <Monoisotopic Mass>
426.050632

>  <Druglikeness>
-0.12935

$$$$
Compound 37
Actelion Java MolfileCreator 1.0

 15 16  0  0  0  0  0  0  0  0999 V2000
    0.0000   -0.0000   -0.0000 S   0  0  0  0  0  0  0  0  0  0  0  0
    1.3625    0.6215   -0.0000 C   0  0  0  0  0  0  0  0  0  0  0  0
   -1.0159    1.1354   -0.0000 C   0  0  0  0  0  0  0  0  0  0  0  0
    2.6533   -0.1195   -0.0000 C   0  0  0  0  0  0  0  0  0  0  0  0
    1.1952    2.1275   -0.0000 C   0  0  0  0  0  0  0  0  0  0  0  0
   -0.2749    2.4502   -0.0000 C   0  0  0  0  0  0  0  0  0  0  0  0
    2.6414   -1.6135   -0.0000 O   0  0  0  0  0  0  0  0  0  0  0  0
    3.9442    0.6454   -0.0000 O   0  0  0  0  0  0  0  0  0  0  0  0
    5.2350   -0.0956   -0.0000 C   0  0  0  0  0  0  0  0  0  0  0  0
    6.5258    0.6693   -0.0000 C   0  0  0  0  0  0  0  0  0  0  0  0
    5.2230   -1.6016   -0.0000 C   0  0  0  0  0  0  0  0  0  0  0  0
    7.8166   -0.0717   -0.0000 N   0  0  0  0  0  0  0  0  0  0  0  0
    6.5138   -2.3426   -0.0000 C   0  0  0  0  0  0  0  0  0  0  0  0
    7.8047   -1.5777   -0.0000 C   0  0  0  0  0  0  0  0  0  0  0  0
    9.0955   -2.3187   -0.0000 C   0  0  0  0  0  0  0  0  0  0  0  0
  1  2  1  0  0  0  0
  1  3  1  0  0  0  0
  2  4  1  0  0  0  0
  2  5  2  0  0  0  0
  3  6  2  0  0  0  0
  4  7  2  0  0  0  0
  4  8  1  0  0  0  0
  8  9  1  0  0  0  0
  9 10  2  0  0  0  0
  9 11  1  0  0  0  0
 10 12  1  0  0  0  0
 11 13  2  0  0  0  0
 12 14  2  0  0  0  0
 14 15  1  0  0  0  0
  5  6  1  0  0  0  0
 13 14  1  0  0  0  0
M  END
>  <MolRegNo>
371836

>  <m>
<

>  <Value>
10

>  <Unit>
%

>  <Type>
Inhibition

>  <Ligand Efficiency>


>  <Binding Efficiency>


>  <Surface Efficiency>


>  <Assay Index>
278390

>  <Assay Category>


>  <Assay Organism>
SARS coronavirus

>  <Target ID>
20012

>  <Target Name>
SARS coronavirus 3C-like proteinase

>  <Target Organism>
SARS coronavirus

>  <Target Description>
Target is a single protein chain

>  <Sequence Accession>
P0C6U8

>  <Reference>
J. Med. Chem. 50 (8), 1850-1864 (2007)

>  <Pubmed ID>
17381079

>  <DOI>
10.1021/jm061425k

>  <InChI-Key>
BLJRXJXOLZWTJS-UHFFFAOYSA-N

>  <Molecular Formula>
C11H9NO2S

>  <Monoisotopic Mass>
219.035399

>  <Druglikeness>
1.7228

$$$$
Compound 38
Actelion Java MolfileCreator 1.0

 32 36  0  0  0  0  0  0  0  0999 V2000
    0.0000   -0.0000   -0.0000 Cl  0  0  0  0  0  0  0  0  0  0  0  0
   -1.3028   -0.7343   -0.0000 C   0  0  0  0  0  0  0  0  0  0  0  0
   -2.6057    0.0237   -0.0000 C   0  0  0  0  0  0  0  0  0  0  0  0
   -1.3147   -2.2267   -0.0000 C   0  0  0  0  0  0  0  0  0  0  0  0
   -3.9085   -0.7106   -0.0000 C   0  0  0  0  0  0  0  0  0  0  0  0
   -2.6175    1.5279   -0.0000 C   0  0  0  0  0  0  0  0  0  0  0  0
   -2.6294   -2.9610   -0.0000 C   0  0  0  0  0  0  0  0  0  0  0  0
   -5.2113    0.0474   -0.0000 F   0  0  0  0  0  0  0  0  0  0  0  0
   -3.9204   -2.2030   -0.0000 C   0  0  0  0  0  0  0  0  0  0  0  0
   -1.4331    2.4162   -0.0000 S   0  0  0  0  0  0  0  0  0  0  0  0
   -3.8493    2.4043   -0.0000 N   0  0  0  0  0  0  0  0  0  0  0  0
   -1.9069    3.8493   -0.0000 C   0  0  0  0  0  0  0  0  0  0  0  0
   -5.3535    2.4043   -0.0000 C   0  0  0  0  0  0  0  0  0  0  0  0
   -3.3992    3.8374   -0.0000 C   0  0  0  0  0  0  0  0  0  0  0  0
   -6.1115    3.7072   -0.0000 N   0  0  0  0  0  0  0  0  0  0  0  0
   -6.0996    1.1133   -0.0000 N   0  0  0  0  0  0  0  0  0  0  0  0
   -4.2875    5.0574   -0.0000 O   0  0  0  0  0  0  0  0  0  0  0  0
   -7.6157    3.7072   -0.0000 C   0  0  0  0  0  0  0  0  0  0  0  0
   -7.6038    1.1133   -0.0000 C   0  0  0  0  0  0  0  0  0  0  0  0
   -8.3855    5.0100   -0.0000 C   0  0  0  0  0  0  0  0  0  0  0  0
   -8.3737    2.4162   -0.0000 C   0  0  0  0  0  0  0  0  0  0  0  0
   -8.3500   -0.1777   -0.0000 C   0  0  0  0  0  0  0  0  0  0  0  0
   -7.6512    6.3128   -0.0000 C   0  0  0  0  0  0  0  0  0  0  0  0
   -9.8779    4.9982   -0.0000 C   0  0  0  0  0  0  0  0  0  0  0  0
   -9.8542   -0.1658   -0.0000 C   0  0  0  0  0  0  0  0  0  0  0  0
   -7.6038   -1.4450   -0.0000 C   0  0  0  0  0  0  0  0  0  0  0  0
   -8.4092    7.6157   -0.0000 C   0  0  0  0  0  0  0  0  0  0  0  0
  -10.6477    6.2892   -0.0000 C   0  0  0  0  0  0  0  0  0  0  0  0
  -10.6004   -1.4568   -0.0000 C   0  0  0  0  0  0  0  0  0  0  0  0
   -8.3500   -2.7360   -0.0000 C   0  0  0  0  0  0  0  0  0  0  0  0
   -9.9134    7.6275   -0.0000 C   0  0  0  0  0  0  0  0  0  0  0  0
   -9.8542   -2.7360   -0.0000 C   0  0  0  0  0  0  0  0  0  0  0  0
  1  2  1  0  0  0  0
  2  3  2  0  0  0  0
  2  4  1  0  0  0  0
  3  5  1  0  0  0  0
  3  6  1  0  0  0  0
  4  7  2  0  0  0  0
  5  8  1  0  0  0  0
  5  9  2  0  0  0  0
  6 10  1  0  0  0  0
  6 11  1  0  0  0  0
 10 12  1  0  0  0  0
 11 13  1  0  0  0  0
 11 14  1  0  0  0  0
 13 15  2  0  0  0  0
 13 16  1  0  0  0  0
 14 17  2  0  0  0  0
 15 18  1  0  0  0  0
 16 19  2  0  0  0  0
 18 20  1  0  0  0  0
 18 21  2  0  0  0  0
 19 22  1  0  0  0  0
 20 23  2  0  0  0  0
 20 24  1  0  0  0  0
 22 25  2  0  0  0  0
 22 26  1  0  0  0  0
 23 27  1  0  0  0  0
 24 28  2  0  0  0  0
 25 29  1  0  0  0  0
 26 30  2  0  0  0  0
 27 31  2  0  0  0  0
 29 32  2  0  0  0  0
  7  9  1  0  0  0  0
 12 14  1  0  0  0  0
 19 21  1  0  0  0  0
 28 31  1  0  0  0  0
 30 32  1  0  0  0  0
M  END
>  <MolRegNo>
379294

>  <m>
<=

>  <Value>
50

>  <Unit>
%

>  <Type>
Inhibition

>  <Ligand Efficiency>


>  <Binding Efficiency>


>  <Surface Efficiency>


>  <Assay Index>
406904

>  <Assay Category>


>  <Assay Organism>
SARS coronavirus

>  <Target ID>
101075

>  <Target Name>
Replicase polyprotein 1ab

>  <Target Organism>
SARS coronavirus

>  <Target Description>
Target is a single protein chain

>  <Sequence Accession>
P0C6X7

>  <Reference>
Bioorg. Med. Chem. Lett. 18 (23), 6110-6114 (2008)

>  <Pubmed ID>
18947995

>  <DOI>
10.1016/j.bmcl.2008.10.023

>  <InChI-Key>
BLNVRICOAUESKO-UHFFFAOYSA-N

>  <Molecular Formula>
C25H17N3OClFS

>  <Monoisotopic Mass>
461.076487

>  <Druglikeness>
1.5133

$$$$
Compound 39
Actelion Java MolfileCreator 1.0

 23 26  0  0  0  0  0  0  0  0999 V2000
    0.0000   -0.0000   -0.0000 Cl  0  0  0  0  0  0  0  0  0  0  0  0
   -0.0240    1.5137   -0.0000 C   0  0  0  0  0  0  0  0  0  0  0  0
    1.2734    2.2825   -0.0000 C   0  0  0  0  0  0  0  0  0  0  0  0
   -1.3335    2.2825   -0.0000 C   0  0  0  0  0  0  0  0  0  0  0  0
    2.6910    1.8260   -0.0000 N   0  0  0  0  0  0  0  0  0  0  0  0
    1.2614    3.8082   -0.0000 C   0  0  0  0  0  0  0  0  0  0  0  0
   -1.3455    3.8202   -0.0000 C   0  0  0  0  0  0  0  0  0  0  0  0
    3.5679    3.0514   -0.0000 C   0  0  0  0  0  0  0  0  0  0  0  0
    3.1475    0.4085   -0.0000 C   0  0  0  0  0  0  0  0  0  0  0  0
   -0.0601    4.5530   -0.0000 C   0  0  0  0  0  0  0  0  0  0  0  0
    2.6790    4.2767   -0.0000 C   0  0  0  0  0  0  0  0  0  0  0  0
    5.0576    3.0634   -0.0000 O   0  0  0  0  0  0  0  0  0  0  0  0
    4.6131    0.1081   -0.0000 C   0  0  0  0  0  0  0  0  0  0  0  0
   -0.0841    6.0667   -0.0000 Cl  0  0  0  0  0  0  0  0  0  0  0  0
    3.1355    5.7183   -0.0000 O   0  0  0  0  0  0  0  0  0  0  0  0
    5.7183    1.1413   -0.0000 S   0  0  0  0  0  0  0  0  0  0  0  0
    5.2137   -1.2494   -0.0000 C   0  0  0  0  0  0  0  0  0  0  0  0
    7.0157    0.3964   -0.0000 C   0  0  0  0  0  0  0  0  0  0  0  0
    6.6914   -1.0572   -0.0000 C   0  0  0  0  0  0  0  0  0  0  0  0
    8.4213    0.8770   -0.0000 C   0  0  0  0  0  0  0  0  0  0  0  0
    7.7846   -2.0423   -0.0000 C   0  0  0  0  0  0  0  0  0  0  0  0
    9.5265   -0.1081   -0.0000 C   0  0  0  0  0  0  0  0  0  0  0  0
    9.1901   -1.5737   -0.0000 C   0  0  0  0  0  0  0  0  0  0  0  0
  1  2  1  0  0  0  0
  2  3  2  0  0  0  0
  2  4  1  0  0  0  0
  3  5  1  0  0  0  0
  3  6  1  0  0  0  0
  4  7  2  0  0  0  0
  5  8  1  0  0  0  0
  5  9  1  0  0  0  0
  6 10  2  0  0  0  0
  6 11  1  0  0  0  0
  8 12  2  0  0  0  0
  9 13  1  0  0  0  0
 10 14  1  0  0  0  0
 11 15  2  0  0  0  0
 13 16  1  0  0  0  0
 13 17  2  0  0  0  0
 16 18  1  0  0  0  0
 17 19  1  0  0  0  0
 18 20  1  0  0  0  0
 19 21  1  0  0  0  0
 20 22  2  0  0  0  0
 21 23  2  0  0  0  0
  7 10  1  0  0  0  0
  8 11  1  0  0  0  0
 18 19  2  0  0  0  0
 22 23  1  0  0  0  0
M  END
>  <MolRegNo>
316734

>  <m>
=

>  <Value>
46

>  <Unit>
%

>  <Type>
Inhibition

>  <Ligand Efficiency>


>  <Binding Efficiency>


>  <Surface Efficiency>


>  <Assay Index>
240994

>  <Assay Category>


>  <Assay Organism>
SARS coronavirus

>  <Target ID>
20012

>  <Target Name>
SARS coronavirus 3C-like proteinase

>  <Target Organism>
SARS coronavirus

>  <Target Description>
Target is a single protein chain

>  <Sequence Accession>
P0C6U8

>  <Reference>
Bioorg. Med. Chem. Lett. 15 (12), 3058-3062 (2005)

>  <Pubmed ID>
15896959

>  <DOI>
10.1016/j.bmcl.2005.04.027

>  <InChI-Key>
BNNAFRJSQJKTAV-UHFFFAOYSA-N

>  <Molecular Formula>
C17H9NO2Cl2S

>  <Monoisotopic Mass>
360.973103

>  <Druglikeness>
1.2951

$$$$
Compound 40
Actelion Java MolfileCreator 1.0

 19 21  0  0  0  0  0  0  0  0999 V2000
    0.0000   -0.0000   -0.0000 Cl  0  0  0  0  0  0  0  0  0  0  0  0
   -1.3046   -0.7353   -0.0000 C   0  0  0  0  0  0  0  0  0  0  0  0
   -1.3165   -2.2297   -0.0000 C   0  0  0  0  0  0  0  0  0  0  0  0
   -2.6092    0.0237   -0.0000 C   0  0  0  0  0  0  0  0  0  0  0  0
   -2.6329   -2.9650   -0.0000 N   0  0  0  0  0  0  0  0  0  0  0  0
   -3.9138   -0.7116   -0.0000 C   0  0  0  0  0  0  0  0  0  0  0  0
   -3.9375   -2.2060   -0.0000 C   0  0  0  0  0  0  0  0  0  0  0  0
   -5.2184    0.0474   -0.0000 O   0  0  0  0  0  0  0  0  0  0  0  0
   -6.5349   -0.6879   -0.0000 C   0  0  0  0  0  0  0  0  0  0  0  0
   -7.8395    0.0712   -0.0000 O   0  0  0  0  0  0  0  0  0  0  0  0
   -6.5467   -2.1704   -0.0000 C   0  0  0  0  0  0  0  0  0  0  0  0
   -7.8513   -2.9057   -0.0000 C   0  0  0  0  0  0  0  0  0  0  0  0
   -5.2658   -2.9176   -0.0000 C   0  0  0  0  0  0  0  0  0  0  0  0
   -7.8632   -4.4001   -0.0000 C   0  0  0  0  0  0  0  0  0  0  0  0
   -9.2982   -2.4313   -0.0000 C   0  0  0  0  0  0  0  0  0  0  0  0
   -5.2777   -4.4001   -0.0000 C   0  0  0  0  0  0  0  0  0  0  0  0
   -9.3101   -4.8507   -0.0000 N   0  0  0  0  0  0  0  0  0  0  0  0
   -6.5823   -5.1354   -0.0000 C   0  0  0  0  0  0  0  0  0  0  0  0
  -10.1996   -3.6410   -0.0000 C   0  0  0  0  0  0  0  0  0  0  0  0
  1  2  1  0  0  0  0
  2  3  2  0  0  0  0
  2  4  1  0  0  0  0
  3  5  1  0  0  0  0
  4  6  2  0  0  0  0
  5  7  2  0  0  0  0
  6  8  1  0  0  0  0
  8  9  1  0  0  0  0
  9 10  2  0  0  0  0
  9 11  1  0  0  0  0
 11 12  2  0  0  0  0
 11 13  1  0  0  0  0
 12 14  1  0  0  0  0
 12 15  1  0  0  0  0
 13 16  2  0  0  0  0
 14 17  1  0  0  0  0
 14 18  2  0  0  0  0
 15 19  2  0  0  0  0
  6  7  1  0  0  0  0
 16 18  1  0  0  0  0
 17 19  1  0  0  0  0
M  END
>  <MolRegNo>
493033

>  <m>
=

>  <Value>
30

>  <Unit>
nM

>  <Type>
IC50

>  <Ligand Efficiency>


>  <Binding Efficiency>


>  <Surface Efficiency>


>  <Assay Index>
341535

>  <Assay Category>


>  <Assay Organism>
SARS coronavirus

>  <Target ID>
100499

>  <Target Name>
SARS coronavirus

>  <Target Organism>
SARS coronavirus

>  <Target Description>
Target is a complete organism

>  <Sequence Accession>


>  <Reference>
Bioorg. Med. Chem. Lett. 18 (20), 5684-5688 (2008)

>  <Pubmed ID>
18796354

>  <DOI>
10.1016/j.bmcl.2008.08.082

>  <InChI-Key>
BOSZJNSICHFHMA-UHFFFAOYSA-N

>  <Molecular Formula>
C14H9N2O2Cl

>  <Monoisotopic Mass>
272.035255

>  <Druglikeness>
-0.46366

$$$$
Compound 41
Actelion Java MolfileCreator 1.0

 29 32  0  0  0  0  0  0  0  0999 V2000
    0.0000   -0.0000   -0.0000 Cl  0  0  0  0  0  0  0  0  0  0  0  0
   -0.0122   -1.2365   -0.0000 C   0  0  0  0  0  0  0  0  0  0  0  0
   -1.3712   -1.9956   -0.0000 C   0  0  0  0  0  0  0  0  0  0  0  0
    1.3222   -1.9956   -0.0000 C   0  0  0  0  0  0  0  0  0  0  0  0
   -1.3834   -3.5382   -0.0000 C   0  0  0  0  0  0  0  0  0  0  0  0
    1.3100   -3.5382   -0.0000 C   0  0  0  0  0  0  0  0  0  0  0  0
   -0.0490   -4.2973   -0.0000 C   0  0  0  0  0  0  0  0  0  0  0  0
   -2.7424   -4.2973   -0.0000 C   0  0  0  0  0  0  0  0  0  0  0  0
   -0.0612   -5.8399   -0.0000 C   0  0  0  0  0  0  0  0  0  0  0  0
   -4.1503   -3.6484   -0.0000 O   0  0  0  0  0  0  0  0  0  0  0  0
   -2.8893   -5.8154   -0.0000 C   0  0  0  0  0  0  0  0  0  0  0  0
    1.0039   -6.4520   -0.0000 O   0  0  0  0  0  0  0  0  0  0  0  0
   -1.1508   -6.4520   -0.0000 O   0  0  0  0  0  0  0  0  0  0  0  0
   -5.2032   -4.7870   -0.0000 C   0  0  0  0  0  0  0  0  0  0  0  0
   -4.4197   -6.1337   -0.0000 C   0  0  0  0  0  0  0  0  0  0  0  0
   -6.7581   -4.6156   -0.0000 C   0  0  0  0  0  0  0  0  0  0  0  0
   -7.6763   -5.8643   -0.0000 C   0  0  0  0  0  0  0  0  0  0  0  0
   -7.1988   -7.3090   -0.0000 C   0  0  0  0  0  0  0  0  0  0  0  0
   -9.2311   -5.8399   -0.0000 C   0  0  0  0  0  0  0  0  0  0  0  0
   -6.0235   -7.6763   -0.0000 O   0  0  0  0  0  0  0  0  0  0  0  0
   -8.4721   -8.2150   -0.0000 N   0  0  0  0  0  0  0  0  0  0  0  0
   -9.7208   -7.3090   -0.0000 N   0  0  0  0  0  0  0  0  0  0  0  0
   -9.9657   -4.8237   -0.0000 C   0  0  0  0  0  0  0  0  0  0  0  0
   -8.4843   -9.7576   -0.0000 C   0  0  0  0  0  0  0  0  0  0  0  0
   -7.2111  -10.6146   -0.0000 C   0  0  0  0  0  0  0  0  0  0  0  0
   -9.9045  -10.4187   -0.0000 C   0  0  0  0  0  0  0  0  0  0  0  0
   -7.3335  -12.1572   -0.0000 C   0  0  0  0  0  0  0  0  0  0  0  0
  -10.0269  -11.9613   -0.0000 C   0  0  0  0  0  0  0  0  0  0  0  0
   -8.7414  -12.8183   -0.0000 C   0  0  0  0  0  0  0  0  0  0  0  0
  1  2  1  0  0  0  0
  2  3  2  0  0  0  0
  2  4  1  0  0  0  0
  3  5  1  0  0  0  0
  4  6  2  0  0  0  0
  5  7  2  0  0  0  0
  5  8  1  0  0  0  0
  7  9  1  0  0  0  0
  8 10  1  0  0  0  0
  8 11  2  0  0  0  0
  9 12  2  0  0  0  0
  9 13  1  0  0  0  0
 10 14  1  0  0  0  0
 11 15  1  0  0  0  0
 14 16  1  0  0  0  0
 16 17  2  0  0  0  0
 17 18  1  0  0  0  0
 17 19  1  0  0  0  0
 18 20  2  0  0  0  0
 18 21  1  0  0  0  0
 19 22  2  0  0  0  0
 19 23  1  0  0  0  0
 21 24  1  0  0  0  0
 24 25  2  0  0  0  0
 24 26  1  0  0  0  0
 25 27  1  0  0  0  0
 26 28  2  0  0  0  0
 27 29  2  0  0  0  0
  6  7  1  0  0  0  0
 14 15  2  0  0  0  0
 21 22  1  0  0  0  0
 28 29  1  0  0  0  0
M  END
>  <MolRegNo>
2087689

>  <m>
>

>  <Value>
50000

>  <Unit>
nM

>  <Type>
IC50

>  <Ligand Efficiency>


>  <Binding Efficiency>


>  <Surface Efficiency>


>  <Assay Index>
1017144

>  <Assay Category>


>  <Assay Organism>
SARS coronavirus

>  <Target ID>
101075

>  <Target Name>
Replicase polyprotein 1ab

>  <Target Organism>
SARS coronavirus

>  <Target Description>
Target is a single protein chain

>  <Sequence Accession>
P0C6X7

>  <Reference>
Bioorg. Med. Chem. 24 (13), 3035-3042 (2016)

>  <Pubmed ID>
27240464

>  <DOI>
10.1016/j.bmc.2016.05.013

>  <InChI-Key>
BOZXTRFDIDZQLX-UHFFFAOYSA-N

>  <Molecular Formula>
C22H15N2O4Cl

>  <Monoisotopic Mass>
406.072035

>  <Druglikeness>
5.3377

$$$$
Compound 42
Actelion Java MolfileCreator 1.0

 21 23  0  0  0  0  0  0  0  0999 V2000
    0.0000   -0.0000   -0.0000 O   0  0  0  0  0  0  0  0  0  0  0  0
    1.2230   -0.8717   -0.0000 C   0  0  0  0  0  0  0  0  0  0  0  0
   -1.1839   -0.8717   -0.0000 C   0  0  0  0  0  0  0  0  0  0  0  0
    2.5890   -1.4311   -0.0000 C   0  0  0  0  0  0  0  0  0  0  0  0
    1.6913    0.5204   -0.0000 C   0  0  0  0  0  0  0  0  0  0  0  0
    0.7806   -2.2117   -0.0000 C   0  0  0  0  0  0  0  0  0  0  0  0
   -0.7156   -2.2508   -0.0000 C   0  0  0  0  0  0  0  0  0  0  0  0
   -2.6281   -0.4293   -0.0000 C   0  0  0  0  0  0  0  0  0  0  0  0
    3.9551   -1.9906   -0.0000 N   0  0  0  0  0  0  0  0  0  0  0  0
    3.0054    0.9367   -0.0000 N   0  0  0  0  0  0  0  0  0  0  0  0
    0.8196    1.8605   -0.0000 C   0  0  0  0  0  0  0  0  0  0  0  0
    1.2360   -3.6168   -0.0000 O   0  0  0  0  0  0  0  0  0  0  0  0
   -1.1839   -3.6559   -0.0000 O   0  0  0  0  0  0  0  0  0  0  0  0
   -2.9793    1.0408   -0.0000 O   0  0  0  0  0  0  0  0  0  0  0  0
    4.2673    0.1301   -0.0000 N   0  0  0  0  0  0  0  0  0  0  0  0
    3.0444    2.6020   -0.0000 C   0  0  0  0  0  0  0  0  0  0  0  0
    1.7694    3.0964   -0.0000 C   0  0  0  0  0  0  0  0  0  0  0  0
    5.6334    0.8847   -0.0000 C   0  0  0  0  0  0  0  0  0  0  0  0
    4.3324    3.3046   -0.0000 C   0  0  0  0  0  0  0  0  0  0  0  0
    5.6724    2.4849   -0.0000 N   0  0  0  0  0  0  0  0  0  0  0  0
    4.3584    4.8008   -0.0000 N   0  0  0  0  0  0  0  0  0  0  0  0
  1  2  1  0  0  0  0
  1  3  1  0  0  0  0
  2  4  1  0  0  0  0
  2  5  1  6  0  0  0
  2  6  1  0  0  0  0
  3  7  1  0  0  0  0
  3  8  1  6  0  0  0
  4  9  3  0  0  0  0
  5 10  1  0  0  0  0
  5 11  2  0  0  0  0
  6 12  1  1  0  0  0
  7 13  1  1  0  0  0
  8 14  1  0  0  0  0
 10 15  1  0  0  0  0
 10 16  1  0  0  0  0
 11 17  1  0  0  0  0
 15 18  2  0  0  0  0
 16 19  1  0  0  0  0
 18 20  1  0  0  0  0
 19 21  1  0  0  0  0
  6  7  1  0  0  0  0
 16 17  2  0  0  0  0
 19 20  2  0  0  0  0
M  END
>  <MolRegNo>
1334474

>  <m>
=

>  <Value>
2240

>  <Unit>
nM

>  <Type>
EC50

>  <Ligand Efficiency>


>  <Binding Efficiency>


>  <Surface Efficiency>


>  <Assay Index>
648311

>  <Assay Category>


>  <Assay Organism>
SARS coronavirus

>  <Target ID>
100499

>  <Target Name>
SARS coronavirus

>  <Target Organism>
SARS coronavirus

>  <Target Description>
Target is a complete organism

>  <Sequence Accession>


>  <Reference>
Bioorg. Med. Chem. Lett. 22 (8), 2705-2707 (2012)

>  <Pubmed ID>
22446091

>  <DOI>
10.1016/j.bmcl.2012.02.105

>  <InChI-Key>
BRDWIEOJOWJCLU-CKIYVRPFSA-N

>  <Molecular Formula>
C12H13N5O4

>  <Monoisotopic Mass>
291.096755

>  <Druglikeness>
-4.4561

$$$$
Compound 43
Actelion Java MolfileCreator 1.0

 17 18  0  0  1  0  0  0  0  0999 V2000
    0.0000   -0.0000   -0.0000 O   0  0  0  0  0  0  0  0  0  0  0  0
   -1.3239    0.7565   -0.0000 C   0  0  0  0  0  0  0  0  0  0  0  0
   -1.3475    2.2577   -0.0000 N   0  0  0  0  0  0  0  0  0  0  0  0
   -2.6241   -0.0000   -0.0000 C   0  0  0  0  0  0  0  0  0  0  0  0
   -2.6714    3.0023   -0.0000 C   0  0  0  0  0  0  0  0  0  0  0  0
   -3.9361    0.7565   -0.0000 C   0  0  0  0  0  0  0  0  0  0  0  0
   -2.6241   -1.4893   -0.0000 C   0  0  0  0  0  0  0  0  0  0  0  0
   -3.9598    2.2577   -0.0000 N   0  0  0  0  0  0  0  0  0  0  0  0
   -2.7068    4.5153   -0.0000 N   0  0  0  0  0  0  0  0  0  0  0  0
   -3.8416   -2.3640   -0.0000 C   0  0  0  0  0  0  0  0  0  0  0  0
   -1.4066   -2.3404   -0.0000 C   0  0  0  0  0  0  0  0  0  0  0  0
   -3.3688   -3.7706   -0.0000 C   0  0  0  0  0  0  0  0  0  0  0  0
    0.0000   -1.8558   -0.0000 O   0  0  0  0  0  0  0  0  0  0  0  0
   -1.8676   -3.7588   -0.0000 C   0  0  0  0  0  0  0  0  0  0  0  0
   -4.2553   -4.9881   -0.0000 C   0  0  0  0  0  0  0  0  0  0  0  0
   -0.9929   -4.9527   -0.0000 O   0  0  0  0  0  0  0  0  0  0  0  0
   -5.7564   -4.8345   -0.0000 O   0  0  0  0  0  0  0  0  0  0  0  0
  1  2  2  0  0  0  0
  2  3  1  0  0  0  0
  2  4  1  0  0  0  0
  3  5  2  0  0  0  0
  4  6  2  0  0  0  0
  7  4  1  1  0  0  0
  5  8  1  0  0  0  0
  5  9  1  0  0  0  0
  7 10  1  0  0  0  0
  7 11  1  0  0  0  0
 10 12  2  0  0  0  0
 11 13  1  6  0  0  0
 11 14  1  0  0  0  0
 12 15  1  0  0  0  0
 14 16  1  6  0  0  0
 15 17  1  0  0  0  0
  6  8  1  0  0  0  0
 12 14  1  0  0  0  0
M  END
>  <MolRegNo>
376354

>  <m>
>

>  <Value>
1.0e5

>  <Unit>
nM

>  <Type>
EC50

>  <Ligand Efficiency>


>  <Binding Efficiency>


>  <Surface Efficiency>


>  <Assay Index>
281342

>  <Assay Category>


>  <Assay Organism>
SARS coronavirus

>  <Target ID>
100499

>  <Target Name>
SARS coronavirus

>  <Target Organism>
SARS coronavirus

>  <Target Description>
Target is a complete organism

>  <Sequence Accession>


>  <Reference>
Bioorg. Med. Chem. 15 (2), 839-846 (2007)

>  <Pubmed ID>
17085053

>  <DOI>
10.1016/j.bmc.2006.10.043

>  <InChI-Key>
BTDCHEXXMLJRNO-GEVIPFJHSA-N

>  <Molecular Formula>
C10H13N3O4

>  <Monoisotopic Mass>
239.090607

>  <Druglikeness>
2.435

$$$$
Compound 44
Actelion Java MolfileCreator 1.0

 17 18  0  0  1  0  0  0  0  0999 V2000
    0.0000   -0.0000   -0.0000 O   0  0  0  0  0  0  0  0  0  0  0  0
   -1.3239    0.7565   -0.0000 C   0  0  0  0  0  0  0  0  0  0  0  0
   -1.3475    2.2577   -0.0000 N   0  0  0  0  0  0  0  0  0  0  0  0
   -2.6241   -0.0000   -0.0000 C   0  0  0  0  0  0  0  0  0  0  0  0
   -2.6714    3.0023   -0.0000 C   0  0  0  0  0  0  0  0  0  0  0  0
   -3.9361    0.7565   -0.0000 C   0  0  0  0  0  0  0  0  0  0  0  0
   -2.6241   -1.4893   -0.0000 C   0  0  0  0  0  0  0  0  0  0  0  0
   -3.9598    2.2577   -0.0000 N   0  0  0  0  0  0  0  0  0  0  0  0
   -2.7068    4.5153   -0.0000 N   0  0  0  0  0  0  0  0  0  0  0  0
   -3.8416   -2.3640   -0.0000 C   0  0  0  0  0  0  0  0  0  0  0  0
   -1.4066   -2.3404   -0.0000 C   0  0  0  0  0  0  0  0  0  0  0  0
   -3.3688   -3.7706   -0.0000 C   0  0  0  0  0  0  0  0  0  0  0  0
    0.0000   -1.8558   -0.0000 O   0  0  0  0  0  0  0  0  0  0  0  0
   -1.8676   -3.7588   -0.0000 C   0  0  0  0  0  0  0  0  0  0  0  0
   -4.2553   -4.9881   -0.0000 C   0  0  0  0  0  0  0  0  0  0  0  0
   -0.9929   -4.9527   -0.0000 O   0  0  0  0  0  0  0  0  0  0  0  0
   -5.7564   -4.8345   -0.0000 O   0  0  0  0  0  0  0  0  0  0  0  0
  1  2  2  0  0  0  0
  2  3  1  0  0  0  0
  2  4  1  0  0  0  0
  3  5  2  0  0  0  0
  4  6  2  0  0  0  0
  7  4  1  1  0  0  0
  5  8  1  0  0  0  0
  5  9  1  0  0  0  0
  7 10  1  0  0  0  0
  7 11  1  0  0  0  0
 10 12  2  0  0  0  0
 11 13  1  6  0  0  0
 11 14  1  0  0  0  0
 12 15  1  0  0  0  0
 14 16  1  6  0  0  0
 15 17  1  0  0  0  0
  6  8  1  0  0  0  0
 12 14  1  0  0  0  0
M  END
>  <MolRegNo>
376354

>  <m>
>

>  <Value>
1.0e5

>  <Unit>
nM

>  <Type>
IC50

>  <Ligand Efficiency>


>  <Binding Efficiency>


>  <Surface Efficiency>


>  <Assay Index>
281342

>  <Assay Category>


>  <Assay Organism>
SARS coronavirus

>  <Target ID>
100499

>  <Target Name>
SARS coronavirus

>  <Target Organism>
SARS coronavirus

>  <Target Description>
Target is a complete organism

>  <Sequence Accession>


>  <Reference>
Bioorg. Med. Chem. 15 (2), 839-846 (2007)

>  <Pubmed ID>
17085053

>  <DOI>
10.1016/j.bmc.2006.10.043

>  <InChI-Key>
BTDCHEXXMLJRNO-GEVIPFJHSA-N

>  <Molecular Formula>
C10H13N3O4

>  <Monoisotopic Mass>
239.090607

>  <Druglikeness>
2.435

$$$$
Compound 45
Actelion Java MolfileCreator 1.0

 21 22  0  0  0  0  0  0  0  0999 V2000
    0.0000   -0.0000   -0.0000 S   0  0  0  0  0  0  0  0  0  0  0  0
    0.7480   -1.2822   -0.0000 O   0  0  0  0  0  0  0  0  0  0  0  0
   -0.7717    1.3060   -0.0000 O   0  0  0  0  0  0  0  0  0  0  0  0
   -1.3060   -0.7361   -0.0000 C   0  0  0  0  0  0  0  0  0  0  0  0
    1.2822    0.7717   -0.0000 C   0  0  0  0  0  0  0  0  0  0  0  0
   -2.6119    0.0237   -0.0000 C   0  0  0  0  0  0  0  0  0  0  0  0
   -1.3178   -2.2320   -0.0000 C   0  0  0  0  0  0  0  0  0  0  0  0
    2.5763    0.0356   -0.0000 C   0  0  0  0  0  0  0  0  0  0  0  0
    1.2585    2.2795   -0.0000 C   0  0  0  0  0  0  0  0  0  0  0  0
   -3.9179   -0.7123   -0.0000 C   0  0  0  0  0  0  0  0  0  0  0  0
   -2.6357   -2.9681   -0.0000 C   0  0  0  0  0  0  0  0  0  0  0  0
    3.8585    0.8073   -0.0000 C   0  0  0  0  0  0  0  0  0  0  0  0
    2.5288    3.0512   -0.0000 C   0  0  0  0  0  0  0  0  0  0  0  0
   -3.9298   -2.2083   -0.0000 C   0  0  0  0  0  0  0  0  0  0  0  0
    3.8348    2.3151   -0.0000 C   0  0  0  0  0  0  0  0  0  0  0  0
   -5.2476   -2.9562   -0.0000 N   0  0  0  0  0  0  0  0  0  0  0  0
    5.1170    3.0987   -0.0000 N   0  0  0  0  0  0  0  0  0  0  0  0
   -5.2595   -4.4403   -0.0000 O   0  0  0  0  0  0  0  0  0  0  0  0
   -6.5536   -2.1964   -0.0000 O   0  0  0  0  0  0  0  0  0  0  0  0
    5.0933    4.6065   -0.0000 O   0  0  0  0  0  0  0  0  0  0  0  0
    6.4111    2.3745   -0.0000 O   0  0  0  0  0  0  0  0  0  0  0  0
  1  2  2  0  0  0  0
  1  3  2  0  0  0  0
  1  4  1  0  0  0  0
  1  5  1  0  0  0  0
  4  6  2  0  0  0  0
  4  7  1  0  0  0  0
  5  8  2  0  0  0  0
  5  9  1  0  0  0  0
  6 10  1  0  0  0  0
  7 11  2  0  0  0  0
  8 12  1  0  0  0  0
  9 13  2  0  0  0  0
 10 14  2  0  0  0  0
 12 15  2  0  0  0  0
 14 16  1  0  0  0  0
 15 17  1  0  0  0  0
 16 18  2  0  0  0  0
 16 19  1  0  0  0  0
 17 20  2  0  0  0  0
 17 21  1  0  0  0  0
 11 14  1  0  0  0  0
 13 15  1  0  0  0  0
M  CHG  4  16   1  17   1  19  -1  21  -1
M  END
>  <MolRegNo>
356411

>  <m>
=

>  <Value>
25000

>  <Unit>
nM

>  <Type>
IC50

>  <Ligand Efficiency>
0.30

>  <Binding Efficiency>
14.93

>  <Surface Efficiency>
3.82

>  <Assay Index>
266027

>  <Assay Category>


>  <Assay Organism>
SARS coronavirus

>  <Target ID>
20012

>  <Target Name>
SARS coronavirus 3C-like proteinase

>  <Target Organism>
SARS coronavirus

>  <Target Description>
Target is a single protein chain

>  <Sequence Accession>
P0C6U8

>  <Reference>
J. Med. Chem. 49 (17), 5154-5161 (2006)

>  <Pubmed ID>
16913704

>  <DOI>
10.1021/jm060207o

>  <InChI-Key>
BVHNGWRPAFKGFP-UHFFFAOYSA-N

>  <Molecular Formula>
C12H8N2O6S

>  <Monoisotopic Mass>
308.010308

>  <Druglikeness>
-10.233

$$$$
Compound 46
Actelion Java MolfileCreator 1.0

 34 38  0  0  0  0  0  0  0  0999 V2000
    0.0000   -0.0000   -0.0000 O   0  0  0  0  0  0  0  0  0  0  0  0
   -0.2642   -1.1771   -0.0000 C   0  0  0  0  0  0  0  0  0  0  0  0
   -1.6455   -1.7896   -0.0000 N   0  0  0  0  0  0  0  0  0  0  0  0
    0.7447   -2.2941   -0.0000 C   0  0  0  0  0  0  0  0  0  0  0  0
   -1.5254   -3.2790   -0.0000 N   0  0  0  0  0  0  0  0  0  0  0  0
   -2.9787   -1.0209   -0.0000 C   0  0  0  0  0  0  0  0  0  0  0  0
   -0.0360   -3.6033   -0.0000 C   0  0  0  0  0  0  0  0  0  0  0  0
    2.2460   -2.1259   -0.0000 C   0  0  0  0  0  0  0  0  0  0  0  0
   -4.3119   -1.7656   -0.0000 C   0  0  0  0  0  0  0  0  0  0  0  0
   -2.9907    0.5165   -0.0000 C   0  0  0  0  0  0  0  0  0  0  0  0
    0.5645   -4.9845   -0.0000 C   0  0  0  0  0  0  0  0  0  0  0  0
    2.8586   -0.7207   -0.0000 C   0  0  0  0  0  0  0  0  0  0  0  0
   -5.6451   -0.9969   -0.0000 C   0  0  0  0  0  0  0  0  0  0  0  0
   -4.3239    1.2852   -0.0000 C   0  0  0  0  0  0  0  0  0  0  0  0
   -0.2522   -6.2577   -0.0000 C   0  0  0  0  0  0  0  0  0  0  0  0
    2.0779   -5.0206   -0.0000 C   0  0  0  0  0  0  0  0  0  0  0  0
    4.3600   -0.5525   -0.0000 C   0  0  0  0  0  0  0  0  0  0  0  0
    1.9578    0.5285   -0.0000 C   0  0  0  0  0  0  0  0  0  0  0  0
   -6.9783   -1.7536   -0.0000 C   0  0  0  0  0  0  0  0  0  0  0  0
   -5.6571    0.5405   -0.0000 C   0  0  0  0  0  0  0  0  0  0  0  0
    0.4564   -7.5909   -0.0000 C   0  0  0  0  0  0  0  0  0  0  0  0
    2.7865   -6.3538   -0.0000 C   0  0  0  0  0  0  0  0  0  0  0  0
    4.9725    0.8528   -0.0000 C   0  0  0  0  0  0  0  0  0  0  0  0
    2.5703    1.9338   -0.0000 C   0  0  0  0  0  0  0  0  0  0  0  0
   -6.9903   -2.9667   -0.0000 O   0  0  0  0  0  0  0  0  0  0  0  0
   -8.0473   -1.1290   -0.0000 O   0  0  0  0  0  0  0  0  0  0  0  0
    1.9698   -7.6269   -0.0000 C   0  0  0  0  0  0  0  0  0  0  0  0
    4.0717    2.1019   -0.0000 C   0  0  0  0  0  0  0  0  0  0  0  0
    4.6842    3.5072   -0.0000 C   0  0  0  0  0  0  0  0  0  0  0  0
    6.1856    3.6753   -0.0000 C   0  0  0  0  0  0  0  0  0  0  0  0
    3.7714    4.7563   -0.0000 C   0  0  0  0  0  0  0  0  0  0  0  0
    6.7982    5.0806   -0.0000 C   0  0  0  0  0  0  0  0  0  0  0  0
    4.3840    6.1616   -0.0000 C   0  0  0  0  0  0  0  0  0  0  0  0
    5.8853    6.3297   -0.0000 C   0  0  0  0  0  0  0  0  0  0  0  0
  1  2  2  0  0  0  0
  2  3  1  0  0  0  0
  2  4  1  0  0  0  0
  3  5  1  0  0  0  0
  3  6  1  0  0  0  0
  4  7  1  0  0  0  0
  4  8  2  0  0  0  0
  6  9  2  0  0  0  0
  6 10  1  0  0  0  0
  7 11  1  0  0  0  0
  8 12  1  0  0  0  0
  9 13  1  0  0  0  0
 10 14  2  0  0  0  0
 11 15  2  0  0  0  0
 11 16  1  0  0  0  0
 12 17  2  0  0  0  0
 12 18  1  0  0  0  0
 13 19  1  0  0  0  0
 13 20  2  0  0  0  0
 15 21  1  0  0  0  0
 16 22  2  0  0  0  0
 17 23  1  0  0  0  0
 18 24  2  0  0  0  0
 19 25  2  0  0  0  0
 19 26  1  0  0  0  0
 21 27  2  0  0  0  0
 23 28  2  0  0  0  0
 28 29  1  0  0  0  0
 29 30  2  0  0  0  0
 29 31  1  0  0  0  0
 30 32  1  0  0  0  0
 31 33  2  0  0  0  0
 32 34  2  0  0  0  0
  5  7  2  0  0  0  0
 14 20  1  0  0  0  0
 22 27  1  0  0  0  0
 24 28  1  0  0  0  0
 33 34  1  0  0  0  0
M  END
>  <MolRegNo>
2087683

>  <m>
=

>  <Value>
6700

>  <Unit>
nM

>  <Type>
IC50

>  <Ligand Efficiency>
0.21

>  <Binding Efficiency>
11.64

>  <Surface Efficiency>
7.39

>  <Assay Index>
1017144

>  <Assay Category>


>  <Assay Organism>
SARS coronavirus

>  <Target ID>
101075

>  <Target Name>
Replicase polyprotein 1ab

>  <Target Organism>
SARS coronavirus

>  <Target Description>
Target is a single protein chain

>  <Sequence Accession>
P0C6X7

>  <Reference>
Bioorg. Med. Chem. 24 (13), 3035-3042 (2016)

>  <Pubmed ID>
27240464

>  <DOI>
10.1016/j.bmc.2016.05.013

>  <InChI-Key>
BWJHOHOWSONGSI-UHFFFAOYSA-N

>  <Molecular Formula>
C29H20N2O3

>  <Monoisotopic Mass>
444.147393

>  <Druglikeness>
4.0983

$$$$
Compound 47
Actelion Java MolfileCreator 1.0

 15 16  0  0  0  0  0  0  0  0999 V2000
    0.0000   -0.0000   -0.0000 Cl  0  0  0  0  0  0  0  0  0  0  0  0
   -0.0119   -1.4874   -0.0000 C   0  0  0  0  0  0  0  0  0  0  0  0
    1.2732   -2.2252   -0.0000 N   0  0  0  0  0  0  0  0  0  0  0  0
   -1.3208   -2.2252   -0.0000 C   0  0  0  0  0  0  0  0  0  0  0  0
    1.2613   -3.7245   -0.0000 C   0  0  0  0  0  0  0  0  0  0  0  0
   -2.6297   -1.4636   -0.0000 N   0  0  0  0  0  0  0  0  0  0  0  0
   -1.3327   -3.7245   -0.0000 C   0  0  0  0  0  0  0  0  0  0  0  0
   -0.0595   -4.4622   -0.0000 C   0  0  0  0  0  0  0  0  0  0  0  0
   -3.9387   -2.2014   -0.0000 C   0  0  0  0  0  0  0  0  0  0  0  0
   -3.9506   -3.6888   -0.0000 O   0  0  0  0  0  0  0  0  0  0  0  0
   -5.2476   -1.4398   -0.0000 C   0  0  0  0  0  0  0  0  0  0  0  0
   -6.6279   -2.0348   -0.0000 S   0  0  0  0  0  0  0  0  0  0  0  0
   -5.4142    0.0595   -0.0000 C   0  0  0  0  0  0  0  0  0  0  0  0
   -7.6394   -0.9043   -0.0000 C   0  0  0  0  0  0  0  0  0  0  0  0
   -6.8897    0.3808   -0.0000 C   0  0  0  0  0  0  0  0  0  0  0  0
  1  2  1  0  0  0  0
  2  3  2  0  0  0  0
  2  4  1  0  0  0  0
  3  5  1  0  0  0  0
  4  6  1  0  0  0  0
  4  7  2  0  0  0  0
  5  8  2  0  0  0  0
  6  9  1  0  0  0  0
  9 10  2  0  0  0  0
  9 11  1  0  0  0  0
 11 12  1  0  0  0  0
 11 13  2  0  0  0  0
 12 14  1  0  0  0  0
 13 15  1  0  0  0  0
  7  8  1  0  0  0  0
 14 15  2  0  0  0  0
M  END
>  <MolRegNo>
371805

>  <m>
<

>  <Value>
10

>  <Unit>
%

>  <Type>
Inhibition

>  <Ligand Efficiency>


>  <Binding Efficiency>


>  <Surface Efficiency>


>  <Assay Index>
278390

>  <Assay Category>


>  <Assay Organism>
SARS coronavirus

>  <Target ID>
20012

>  <Target Name>
SARS coronavirus 3C-like proteinase

>  <Target Organism>
SARS coronavirus

>  <Target Description>
Target is a single protein chain

>  <Sequence Accession>
P0C6U8

>  <Reference>
J. Med. Chem. 50 (8), 1850-1864 (2007)

>  <Pubmed ID>
17381079

>  <DOI>
10.1021/jm061425k

>  <InChI-Key>
BXPGIVPWVMYZGH-UHFFFAOYSA-N

>  <Molecular Formula>
C10H7N2OClS

>  <Monoisotopic Mass>
237.996760

>  <Druglikeness>
3.3339

$$$$
Compound 48
Actelion Java MolfileCreator 1.0

 30 33  0  0  0  0  0  0  0  0999 V2000
    0.0000   -0.0000   -0.0000 Cl  0  0  0  0  0  0  0  0  0  0  0  0
    1.2899    0.7692   -0.0000 C   0  0  0  0  0  0  0  0  0  0  0  0
    2.5799    0.0237   -0.0000 C   0  0  0  0  0  0  0  0  0  0  0  0
    1.2781    2.2840   -0.0000 C   0  0  0  0  0  0  0  0  0  0  0  0
    3.8698    0.7929   -0.0000 C   0  0  0  0  0  0  0  0  0  0  0  0
    2.5681    3.0533   -0.0000 C   0  0  0  0  0  0  0  0  0  0  0  0
    3.8580    2.3077   -0.0000 C   0  0  0  0  0  0  0  0  0  0  0  0
    5.1480    3.0769   -0.0000 C   0  0  0  0  0  0  0  0  0  0  0  0
    6.4379    2.3314   -0.0000 O   0  0  0  0  0  0  0  0  0  0  0  0
    7.7279    3.1006   -0.0000 C   0  0  0  0  0  0  0  0  0  0  0  0
    9.0178    2.3550   -0.0000 C   0  0  0  0  0  0  0  0  0  0  0  0
    7.7160    4.6154   -0.0000 C   0  0  0  0  0  0  0  0  0  0  0  0
   10.3078    3.1243   -0.0000 C   0  0  0  0  0  0  0  0  0  0  0  0
    9.0060    5.3847   -0.0000 C   0  0  0  0  0  0  0  0  0  0  0  0
   11.5977    2.3787   -0.0000 O   0  0  0  0  0  0  0  0  0  0  0  0
   10.2959    4.6391   -0.0000 C   0  0  0  0  0  0  0  0  0  0  0  0
    8.9941    6.8995   -0.0000 O   0  0  0  0  0  0  0  0  0  0  0  0
   12.8877    3.1479   -0.0000 C   0  0  0  0  0  0  0  0  0  0  0  0
   11.5859    5.4083   -0.0000 C   0  0  0  0  0  0  0  0  0  0  0  0
   12.8758    4.6628   -0.0000 C   0  0  0  0  0  0  0  0  0  0  0  0
   14.1776    2.4024   -0.0000 C   0  0  0  0  0  0  0  0  0  0  0  0
   11.5740    6.9231   -0.0000 O   0  0  0  0  0  0  0  0  0  0  0  0
   14.1658    5.4320   -0.0000 O   0  0  0  0  0  0  0  0  0  0  0  0
   15.4676    3.1716   -0.0000 C   0  0  0  0  0  0  0  0  0  0  0  0
   14.1658    0.9112   -0.0000 C   0  0  0  0  0  0  0  0  0  0  0  0
   16.7575    2.4261   -0.0000 C   0  0  0  0  0  0  0  0  0  0  0  0
   15.4557    0.1657   -0.0000 C   0  0  0  0  0  0  0  0  0  0  0  0
   18.0475    3.1953   -0.0000 O   0  0  0  0  0  0  0  0  0  0  0  0
   16.7457    0.9349   -0.0000 C   0  0  0  0  0  0  0  0  0  0  0  0
   18.0356    0.1894   -0.0000 O   0  0  0  0  0  0  0  0  0  0  0  0
  1  2  1  0  0  0  0
  2  3  2  0  0  0  0
  2  4  1  0  0  0  0
  3  5  1  0  0  0  0
  4  6  2  0  0  0  0
  5  7  2  0  0  0  0
  7  8  1  0  0  0  0
  8  9  1  0  0  0  0
  9 10  1  0  0  0  0
 10 11  2  0  0  0  0
 10 12  1  0  0  0  0
 11 13  1  0  0  0  0
 12 14  2  0  0  0  0
 13 15  1  0  0  0  0
 13 16  2  0  0  0  0
 14 17  1  0  0  0  0
 15 18  1  0  0  0  0
 16 19  1  0  0  0  0
 18 20  2  0  0  0  0
 18 21  1  0  0  0  0
 19 22  2  0  0  0  0
 20 23  1  0  0  0  0
 21 24  2  0  0  0  0
 21 25  1  0  0  0  0
 24 26  1  0  0  0  0
 25 27  2  0  0  0  0
 26 28  1  0  0  0  0
 26 29  2  0  0  0  0
 29 30  1  0  0  0  0
  6  7  1  0  0  0  0
 14 16  1  0  0  0  0
 19 20  1  0  0  0  0
 27 29  1  0  0  0  0
M  END
>  <MolRegNo>
562553

>  <m>
=

>  <Value>
20900

>  <Unit>
nM

>  <Type>
IC50

>  <Ligand Efficiency>
0.21

>  <Binding Efficiency>
10.96

>  <Surface Efficiency>
3.89

>  <Assay Index>
426933

>  <Assay Category>


>  <Assay Organism>
SARS coronavirus

>  <Target ID>
101075

>  <Target Name>
Replicase polyprotein 1ab

>  <Target Organism>
SARS coronavirus

>  <Target Description>
Target is a single protein chain

>  <Sequence Accession>
P0C6X7

>  <Reference>
Bioorg. Med. Chem. Lett. 19 (16), 4538-4541 (2009)

>  <Pubmed ID>
19625187

>  <DOI>
10.1016/j.bmcl.2009.07.009

>  <InChI-Key>
BYQBMIHQROWCQG-UHFFFAOYSA-N

>  <Molecular Formula>
C22H15O7Cl

>  <Monoisotopic Mass>
426.050632

>  <Druglikeness>
-0.12935

$$$$
Compound 49
Actelion Java MolfileCreator 1.0

 30 33  0  0  0  0  0  0  0  0999 V2000
    0.0000   -0.0000   -0.0000 Cl  0  0  0  0  0  0  0  0  0  0  0  0
    1.2899    0.7692   -0.0000 C   0  0  0  0  0  0  0  0  0  0  0  0
    2.5799    0.0237   -0.0000 C   0  0  0  0  0  0  0  0  0  0  0  0
    1.2781    2.2840   -0.0000 C   0  0  0  0  0  0  0  0  0  0  0  0
    3.8698    0.7929   -0.0000 C   0  0  0  0  0  0  0  0  0  0  0  0
    2.5681    3.0533   -0.0000 C   0  0  0  0  0  0  0  0  0  0  0  0
    3.8580    2.3077   -0.0000 C   0  0  0  0  0  0  0  0  0  0  0  0
    5.1480    3.0769   -0.0000 C   0  0  0  0  0  0  0  0  0  0  0  0
    6.4379    2.3314   -0.0000 O   0  0  0  0  0  0  0  0  0  0  0  0
    7.7279    3.1006   -0.0000 C   0  0  0  0  0  0  0  0  0  0  0  0
    9.0178    2.3550   -0.0000 C   0  0  0  0  0  0  0  0  0  0  0  0
    7.7160    4.6154   -0.0000 C   0  0  0  0  0  0  0  0  0  0  0  0
   10.3078    3.1243   -0.0000 C   0  0  0  0  0  0  0  0  0  0  0  0
    9.0060    5.3847   -0.0000 C   0  0  0  0  0  0  0  0  0  0  0  0
   11.5977    2.3787   -0.0000 O   0  0  0  0  0  0  0  0  0  0  0  0
   10.2959    4.6391   -0.0000 C   0  0  0  0  0  0  0  0  0  0  0  0
    8.9941    6.8995   -0.0000 O   0  0  0  0  0  0  0  0  0  0  0  0
   12.8877    3.1479   -0.0000 C   0  0  0  0  0  0  0  0  0  0  0  0
   11.5859    5.4083   -0.0000 C   0  0  0  0  0  0  0  0  0  0  0  0
   12.8758    4.6628   -0.0000 C   0  0  0  0  0  0  0  0  0  0  0  0
   14.1776    2.4024   -0.0000 C   0  0  0  0  0  0  0  0  0  0  0  0
   11.5740    6.9231   -0.0000 O   0  0  0  0  0  0  0  0  0  0  0  0
   14.1658    5.4320   -0.0000 O   0  0  0  0  0  0  0  0  0  0  0  0
   15.4676    3.1716   -0.0000 C   0  0  0  0  0  0  0  0  0  0  0  0
   14.1658    0.9112   -0.0000 C   0  0  0  0  0  0  0  0  0  0  0  0
   16.7575    2.4261   -0.0000 C   0  0  0  0  0  0  0  0  0  0  0  0
   15.4557    0.1657   -0.0000 C   0  0  0  0  0  0  0  0  0  0  0  0
   18.0475    3.1953   -0.0000 O   0  0  0  0  0  0  0  0  0  0  0  0
   16.7457    0.9349   -0.0000 C   0  0  0  0  0  0  0  0  0  0  0  0
   18.0356    0.1894   -0.0000 O   0  0  0  0  0  0  0  0  0  0  0  0
  1  2  1  0  0  0  0
  2  3  2  0  0  0  0
  2  4  1  0  0  0  0
  3  5  1  0  0  0  0
  4  6  2  0  0  0  0
  5  7  2  0  0  0  0
  7  8  1  0  0  0  0
  8  9  1  0  0  0  0
  9 10  1  0  0  0  0
 10 11  2  0  0  0  0
 10 12  1  0  0  0  0
 11 13  1  0  0  0  0
 12 14  2  0  0  0  0
 13 15  1  0  0  0  0
 13 16  2  0  0  0  0
 14 17  1  0  0  0  0
 15 18  1  0  0  0  0
 16 19  1  0  0  0  0
 18 20  2  0  0  0  0
 18 21  1  0  0  0  0
 19 22  2  0  0  0  0
 20 23  1  0  0  0  0
 21 24  2  0  0  0  0
 21 25  1  0  0  0  0
 24 26  1  0  0  0  0
 25 27  2  0  0  0  0
 26 28  1  0  0  0  0
 26 29  2  0  0  0  0
 29 30  1  0  0  0  0
  6  7  1  0  0  0  0
 14 16  1  0  0  0  0
 19 20  1  0  0  0  0
 27 29  1  0  0  0  0
M  END
>  <MolRegNo>
562553

>  <m>
=

>  <Value>
4100

>  <Unit>
nM

>  <Type>
IC50

>  <Ligand Efficiency>
0.25

>  <Binding Efficiency>
12.62

>  <Surface Efficiency>
4.48

>  <Assay Index>
426934

>  <Assay Category>


>  <Assay Organism>
SARS coronavirus

>  <Target ID>
101075

>  <Target Name>
Replicase polyprotein 1ab

>  <Target Organism>
SARS coronavirus

>  <Target Description>
Target is a single protein chain

>  <Sequence Accession>
P0C6X7

>  <Reference>
Bioorg. Med. Chem. Lett. 19 (16), 4538-4541 (2009)

>  <Pubmed ID>
19625187

>  <DOI>
10.1016/j.bmcl.2009.07.009

>  <InChI-Key>
BYQBMIHQROWCQG-UHFFFAOYSA-N

>  <Molecular Formula>
C22H15O7Cl

>  <Monoisotopic Mass>
426.050632

>  <Druglikeness>
-0.12935

$$$$
Compound 50
Actelion Java MolfileCreator 1.0

 17 18  0  0  0  0  0  0  0  0999 V2000
    0.0000   -0.0000   -0.0000 O   0  0  0  0  0  0  0  0  0  0  0  0
   -1.5007    0.0117   -0.0000 C   0  0  0  0  0  0  0  0  0  0  0  0
   -2.3917   -1.1958   -0.0000 N   0  0  0  0  0  0  0  0  0  0  0  0
   -2.3917    1.2427   -0.0000 C   0  0  0  0  0  0  0  0  0  0  0  0
   -3.8337   -0.7269   -0.0000 C   0  0  0  0  0  0  0  0  0  0  0  0
   -1.9462   -2.6027   -0.0000 C   0  0  0  0  0  0  0  0  0  0  0  0
   -1.9462    2.6731   -0.0000 O   0  0  0  0  0  0  0  0  0  0  0  0
   -3.8337    0.7855   -0.0000 C   0  0  0  0  0  0  0  0  0  0  0  0
   -5.1351   -1.4655   -0.0000 C   0  0  0  0  0  0  0  0  0  0  0  0
   -2.9544   -3.6930   -0.0000 C   0  0  0  0  0  0  0  0  0  0  0  0
   -5.1468    1.5358   -0.0000 C   0  0  0  0  0  0  0  0  0  0  0  0
   -6.4364   -0.7034   -0.0000 C   0  0  0  0  0  0  0  0  0  0  0  0
   -2.5089   -5.0999   -0.0000 C   0  0  0  0  0  0  0  0  0  0  0  0
   -6.4364    0.7972   -0.0000 C   0  0  0  0  0  0  0  0  0  0  0  0
   -7.7378    1.5476   -0.0000 C   0  0  0  0  0  0  0  0  0  0  0  0
   -7.7495    3.0482   -0.0000 O   0  0  0  0  0  0  0  0  0  0  0  0
   -9.0391    0.8089   -0.0000 O   0  0  0  0  0  0  0  0  0  0  0  0
  1  2  2  0  0  0  0
  2  3  1  0  0  0  0
  2  4  1  0  0  0  0
  3  5  1  0  0  0  0
  3  6  1  0  0  0  0
  4  7  2  0  0  0  0
  4  8  1  0  0  0  0
  5  9  1  0  0  0  0
  6 10  1  0  0  0  0
  8 11  1  0  0  0  0
  9 12  2  0  0  0  0
 10 13  1  0  0  0  0
 11 14  2  0  0  0  0
 14 15  1  0  0  0  0
 15 16  2  0  0  0  0
 15 17  1  0  0  0  0
  5  8  2  0  0  0  0
 12 14  1  0  0  0  0
M  END
>  <MolRegNo>
348560

>  <m>
<

>  <Value>
25

>  <Unit>
%

>  <Type>
Inhibition

>  <Ligand Efficiency>


>  <Binding Efficiency>


>  <Surface Efficiency>


>  <Assay Index>
262887

>  <Assay Category>


>  <Assay Organism>
SARS coronavirus

>  <Target ID>
20012

>  <Target Name>
SARS coronavirus 3C-like proteinase

>  <Target Organism>
SARS coronavirus

>  <Target Description>
Target is a single protein chain

>  <Sequence Accession>
P0C6U8

>  <Reference>
J. Med. Chem. 49 (12), 3440-3443 (2006)

>  <Pubmed ID>
16759084

>  <DOI>
10.1021/jm0602357

>  <InChI-Key>
BZWKOEPAPGSYLV-UHFFFAOYSA-N

>  <Molecular Formula>
C12H11NO4

>  <Monoisotopic Mass>
233.068809

>  <Druglikeness>
0.3249

$$$$
Compound 51
Actelion Java MolfileCreator 1.0

 24 26  0  0  0  0  0  0  0  0999 V2000
    0.0000   -0.0000   -0.0000 S   0  0  0  0  0  0  0  0  0  0  0  0
   -1.2569   -0.8063   -0.0000 O   0  0  0  0  0  0  0  0  0  0  0  0
    1.2451    0.8182   -0.0000 O   0  0  0  0  0  0  0  0  0  0  0  0
   -0.7708    1.3162   -0.0000 C   0  0  0  0  0  0  0  0  0  0  0  0
    0.8656   -1.1976   -0.0000 C   0  0  0  0  0  0  0  0  0  0  0  0
   -0.0237    2.6325   -0.0000 C   0  0  0  0  0  0  0  0  0  0  0  0
   -2.2767    1.3162   -0.0000 C   0  0  0  0  0  0  0  0  0  0  0  0
    2.3479   -1.1858   -0.0000 C   0  0  0  0  0  0  0  0  0  0  0  0
    0.3913   -2.6087   -0.0000 C   0  0  0  0  0  0  0  0  0  0  0  0
   -0.7945    3.9487   -0.0000 C   0  0  0  0  0  0  0  0  0  0  0  0
   -3.0475    2.6206   -0.0000 C   0  0  0  0  0  0  0  0  0  0  0  0
    3.2135    0.0356   -0.0000 S   0  0  0  0  0  0  0  0  0  0  0  0
    2.7985   -2.5969   -0.0000 N   0  0  0  0  0  0  0  0  0  0  0  0
    1.5890   -3.4744   -0.0000 N   0  0  0  0  0  0  0  0  0  0  0  0
   -1.0435   -3.0593   -0.0000 N   0  0  0  0  0  0  0  0  0  0  0  0
   -2.3123    3.9605   -0.0000 C   0  0  0  0  0  0  0  0  0  0  0  0
    4.6839   -0.1067   -0.0000 C   0  0  0  0  0  0  0  0  0  0  0  0
   -2.1581   -2.0514   -0.0000 C   0  0  0  0  0  0  0  0  0  0  0  0
   -1.8617   -0.5810   -0.0000 O   0  0  0  0  0  0  0  0  0  0  0  0
   -3.5929   -2.5020   -0.0000 C   0  0  0  0  0  0  0  0  0  0  0  0
   -4.0673   -3.9131   -0.0000 S   0  0  0  0  0  0  0  0  0  0  0  0
   -4.8143   -1.6127   -0.0000 C   0  0  0  0  0  0  0  0  0  0  0  0
   -5.5732   -3.9012   -0.0000 C   0  0  0  0  0  0  0  0  0  0  0  0
   -6.0357   -2.4783   -0.0000 C   0  0  0  0  0  0  0  0  0  0  0  0
  1  2  2  0  0  0  0
  1  3  2  0  0  0  0
  1  4  1  0  0  0  0
  1  5  1  0  0  0  0
  4  6  2  0  0  0  0
  4  7  1  0  0  0  0
  5  8  2  0  0  0  0
  5  9  1  0  0  0  0
  6 10  1  0  0  0  0
  7 11  2  0  0  0  0
  8 12  1  0  0  0  0
  8 13  1  0  0  0  0
  9 14  2  0  0  0  0
  9 15  1  0  0  0  0
 10 16  2  0  0  0  0
 12 17  1  0  0  0  0
 15 18  1  0  0  0  0
 18 19  2  0  0  0  0
 18 20  1  0  0  0  0
 20 21  1  0  0  0  0
 20 22  2  0  0  0  0
 21 23  1  0  0  0  0
 22 24  1  0  0  0  0
 11 16  1  0  0  0  0
 13 14  1  0  0  0  0
 23 24  2  0  0  0  0
M  END
>  <MolRegNo>
356337

>  <m>
=

>  <Value>
15000

>  <Unit>
nM

>  <Type>
IC50

>  <Ligand Efficiency>
0.27

>  <Binding Efficiency>
12.71

>  <Surface Efficiency>
5.25

>  <Assay Index>
266027

>  <Assay Category>


>  <Assay Organism>
SARS coronavirus

>  <Target ID>
20012

>  <Target Name>
SARS coronavirus 3C-like proteinase

>  <Target Organism>
SARS coronavirus

>  <Target Description>
Target is a single protein chain

>  <Sequence Accession>
P0C6U8

>  <Reference>
J. Med. Chem. 49 (17), 5154-5161 (2006)

>  <Pubmed ID>
16913704

>  <DOI>
10.1021/jm060207o

>  <InChI-Key>
CACIKPKEDXYLDG-UHFFFAOYSA-N

>  <Molecular Formula>
C15H13N3O3S3

>  <Monoisotopic Mass>
379.011902

>  <Druglikeness>
-3.1893

$$$$
Compound 52
Actelion Java MolfileCreator 1.0

 43 45  0  0  1  0  0  0  0  0999 V2000
    0.0000   -0.0000   -0.0000 F   0  0  0  0  0  0  0  0  0  0  0  0
   -1.0628   -1.0510   -0.0000 C   0  0  0  0  0  0  0  0  0  0  0  0
   -2.5389   -0.6731   -0.0000 C   0  0  0  0  0  0  0  0  0  0  0  0
   -0.6613   -2.4917   -0.0000 C   0  0  0  0  0  0  0  0  0  0  0  0
   -3.6136   -1.7241   -0.0000 C   0  0  0  0  0  0  0  0  0  0  0  0
   -1.7359   -3.5663   -0.0000 C   0  0  0  0  0  0  0  0  0  0  0  0
   -3.2121   -3.1648   -0.0000 C   0  0  0  0  0  0  0  0  0  0  0  0
   -4.2749   -4.2158   -0.0000 C   0  0  0  0  0  0  0  0  0  0  0  0
   -4.2867   -5.7038   -0.0000 C   0  0  0  0  0  0  0  0  0  0  0  0
   -2.9995   -6.4477   -0.0000 C   0  0  0  0  0  0  0  0  0  0  0  0
   -5.6093   -6.4477   -0.0000 C   0  0  0  0  0  0  0  0  0  0  0  0
   -3.0113   -7.9357   -0.0000 O   0  0  0  0  0  0  0  0  0  0  0  0
   -1.7123   -5.6919   -0.0000 N   0  0  0  0  0  0  0  0  0  0  0  0
   -6.9201   -5.6919   -0.0000 C   0  0  0  0  0  0  0  0  0  0  0  0
   -0.4251   -6.4359   -0.0000 C   0  0  0  0  0  0  0  0  0  0  0  0
   -6.9319   -4.1804   -0.0000 O   0  0  0  0  0  0  0  0  0  0  0  0
   -8.2309   -6.4359   -0.0000 C   0  0  0  0  0  0  0  0  0  0  0  0
    0.8621   -5.6801   -0.0000 C   0  0  0  0  0  0  0  0  0  0  0  0
   -0.4369   -7.9239   -0.0000 C   0  0  0  0  0  0  0  0  0  0  0  0
   -9.5417   -5.6801   -0.0000 N   0  0  0  0  0  0  0  0  0  0  0  0
   -8.2427   -7.9239   -0.0000 C   0  0  0  0  0  0  0  0  0  0  0  0
    0.8502   -4.1686   -0.0000 C   0  0  0  0  0  0  0  0  0  0  0  0
    0.8502   -8.6560   -0.0000 C   0  0  0  0  0  0  0  0  0  0  0  0
  -10.8525   -6.4241   -0.0000 C   0  0  0  0  0  0  0  0  0  0  0  0
   -9.5535   -8.6560   -0.0000 C   0  0  0  0  0  0  0  0  0  0  0  0
   -6.9555   -8.6560   -0.0000 C   0  0  0  0  0  0  0  0  0  0  0  0
    2.1374   -3.4128   -0.0000 C   0  0  0  0  0  0  0  0  0  0  0  0
    0.9920  -10.1321   -0.0000 C   0  0  0  0  0  0  0  0  0  0  0  0
    2.2201   -8.0301   -0.0000 C   0  0  0  0  0  0  0  0  0  0  0  0
  -10.8643   -7.9120   -0.0000 O   0  0  0  0  0  0  0  0  0  0  0  0
  -12.1633   -5.6683   -0.0000 C   0  0  0  0  0  0  0  0  0  0  0  0
    2.1256   -1.9013   -0.0000 O   0  0  0  0  0  0  0  0  0  0  0  0
    3.4364   -4.1450   -0.0000 O   0  0  0  0  0  0  0  0  0  0  0  0
   -0.1299  -11.1241   -0.0000 O   0  0  0  0  0  0  0  0  0  0  0  0
    2.4445  -10.4274   -0.0000 N   0  0  0  0  0  0  0  0  0  0  0  0
    3.2121   -9.1284   -0.0000 C   0  0  0  0  0  0  0  0  0  0  0  0
  -12.3522   -4.1568   -0.0000 N   0  0  0  0  0  0  0  0  0  0  0  0
  -13.5568   -6.2706   -0.0000 C   0  0  0  0  0  0  0  0  0  0  0  0
    4.7236   -3.3892   -0.0000 C   0  0  0  0  0  0  0  0  0  0  0  0
  -13.8166   -3.8261   -0.0000 O   0  0  0  0  0  0  0  0  0  0  0  0
  -14.5723   -5.1369   -0.0000 C   0  0  0  0  0  0  0  0  0  0  0  0
    6.0108   -4.1213   -0.0000 C   0  0  0  0  0  0  0  0  0  0  0  0
  -16.0485   -5.2786   -0.0000 C   0  0  0  0  0  0  0  0  0  0  0  0
  1  2  1  0  0  0  0
  2  3  2  0  0  0  0
  2  4  1  0  0  0  0
  3  5  1  0  0  0  0
  4  6  2  0  0  0  0
  5  7  2  0  0  0  0
  7  8  1  0  0  0  0
  8  9  1  0  0  0  0
  9 10  1  0  0  0  0
  9 11  1  0  0  0  0
 10 12  2  0  0  0  0
 10 13  1  0  0  0  0
 11 14  1  0  0  0  0
 15 13  1  6  0  0  0
 14 16  2  0  0  0  0
 14 17  1  0  0  0  0
 15 18  1  0  0  0  0
 15 19  1  0  0  0  0
 17 20  1  6  0  0  0
 17 21  1  0  0  0  0
 18 22  2  0  0  0  0
 23 19  1  6  0  0  0
 20 24  1  0  0  0  0
 21 25  1  0  0  0  0
 21 26  1  0  0  0  0
 22 27  1  0  0  0  0
 23 28  1  0  0  0  0
 23 29  1  0  0  0  0
 24 30  2  0  0  0  0
 24 31  1  0  0  0  0
 27 32  2  0  0  0  0
 27 33  1  0  0  0  0
 28 34  2  0  0  0  0
 28 35  1  0  0  0  0
 29 36  1  0  0  0  0
 31 37  2  0  0  0  0
 31 38  1  0  0  0  0
 33 39  1  0  0  0  0
 37 40  1  0  0  0  0
 38 41  2  0  0  0  0
 39 42  1  0  0  0  0
 41 43  1  0  0  0  0
  6  7  1  0  0  0  0
 35 36  1  0  0  0  0
 40 41  1  0  0  0  0
M  END
>  <MolRegNo>
329388

>  <m>
>

>  <Value>
100

>  <Unit>
ug ml-1

>  <Type>
Activity

>  <Ligand Efficiency>


>  <Binding Efficiency>


>  <Surface Efficiency>


>  <Assay Index>
252994

>  <Assay Category>


>  <Assay Organism>
Carona virus

>  <Target ID>
20012

>  <Target Name>
SARS coronavirus 3C-like proteinase

>  <Target Organism>
SARS coronavirus

>  <Target Description>
Target is a single protein chain

>  <Sequence Accession>
P0C6U8

>  <Reference>
J. Med. Chem. 48 (22), 6767-6771 (2005)

>  <Pubmed ID>
16250632

>  <DOI>
10.1021/jm050548m

>  <InChI-Key>
CAYJBRBGZBCZKO-AYYQVUAPSA-N

>  <Molecular Formula>
C31H39N4O7F

>  <Monoisotopic Mass>
598.280279

>  <Druglikeness>
-3.9178

$$$$
Compound 53
Actelion Java MolfileCreator 1.0

 30 30  0  0  1  0  0  0  0  0999 V2000
    0.0000   -0.0000   -0.0000 F   0  0  0  0  0  0  0  0  0  0  0  0
   -1.3039    0.7586   -0.0000 C   0  0  0  0  0  0  0  0  0  0  0  0
   -2.6077    0.0237   -0.0000 C   0  0  0  0  0  0  0  0  0  0  0  0
   -2.6196   -1.4579   -0.0000 O   0  0  0  0  0  0  0  0  0  0  0  0
   -3.9116    0.7823   -0.0000 C   0  0  0  0  0  0  0  0  0  0  0  0
   -5.2154    0.0474   -0.0000 N   0  0  0  0  0  0  0  0  0  0  0  0
   -3.9234    2.2877   -0.0000 C   0  0  0  0  0  0  0  0  0  0  0  0
   -6.5193    0.8060   -0.0000 C   0  0  0  0  0  0  0  0  0  0  0  0
   -2.6433    3.0463   -0.0000 C   0  0  0  0  0  0  0  0  0  0  0  0
   -6.5311    2.3114   -0.0000 O   0  0  0  0  0  0  0  0  0  0  0  0
   -7.8231    0.0711   -0.0000 C   0  0  0  0  0  0  0  0  0  0  0  0
   -2.6551    4.5516   -0.0000 C   0  0  0  0  0  0  0  0  0  0  0  0
   -9.1270    0.8297   -0.0000 N   0  0  0  0  0  0  0  0  0  0  0  0
   -7.8350   -1.4105   -0.0000 C   0  0  0  0  0  0  0  0  0  0  0  0
   -3.9590    5.3102   -0.0000 O   0  0  0  0  0  0  0  0  0  0  0  0
   -1.3750    5.3102   -0.0000 N   0  0  0  0  0  0  0  0  0  0  0  0
  -10.4308    0.0948   -0.0000 C   0  0  0  0  0  0  0  0  0  0  0  0
   -9.1388   -2.1454   -0.0000 C   0  0  0  0  0  0  0  0  0  0  0  0
   -6.5548   -2.1454   -0.0000 C   0  0  0  0  0  0  0  0  0  0  0  0
   -0.0948    4.5753   -0.0000 C   0  0  0  0  0  0  0  0  0  0  0  0
   -1.3868    6.8156   -0.0000 C   0  0  0  0  0  0  0  0  0  0  0  0
  -10.4427   -1.3868   -0.0000 O   0  0  0  0  0  0  0  0  0  0  0  0
  -11.7347    0.8534   -0.0000 O   0  0  0  0  0  0  0  0  0  0  0  0
  -13.0385    0.1185   -0.0000 C   0  0  0  0  0  0  0  0  0  0  0  0
  -14.3424    0.8771   -0.0000 C   0  0  0  0  0  0  0  0  0  0  0  0
  -15.6581    0.1422   -0.0000 C   0  0  0  0  0  0  0  0  0  0  0  0
  -14.3542    2.3943   -0.0000 C   0  0  0  0  0  0  0  0  0  0  0  0
  -16.9619    0.9008   -0.0000 C   0  0  0  0  0  0  0  0  0  0  0  0
  -15.6581    3.1529   -0.0000 C   0  0  0  0  0  0  0  0  0  0  0  0
  -16.9738    2.4180   -0.0000 C   0  0  0  0  0  0  0  0  0  0  0  0
  1  2  1  0  0  0  0
  2  3  1  0  0  0  0
  3  4  2  0  0  0  0
  3  5  1  0  0  0  0
  5  6  1  0  0  0  0
  5  7  1  0  0  0  0
  6  8  1  0  0  0  0
  7  9  1  0  0  0  0
  8 10  2  0  0  0  0
  8 11  1  0  0  0  0
  9 12  1  0  0  0  0
 11 13  1  6  0  0  0
 11 14  1  0  0  0  0
 12 15  2  0  0  0  0
 12 16  1  0  0  0  0
 13 17  1  0  0  0  0
 14 18  1  0  0  0  0
 14 19  1  0  0  0  0
 16 20  1  0  0  0  0
 16 21  1  0  0  0  0
 17 22  2  0  0  0  0
 17 23  1  0  0  0  0
 23 24  1  0  0  0  0
 24 25  1  0  0  0  0
 25 26  2  0  0  0  0
 25 27  1  0  0  0  0
 26 28  1  0  0  0  0
 27 29  2  0  0  0  0
 28 30  2  0  0  0  0
 29 30  1  0  0  0  0
M  END
>  <MolRegNo>
338433

>  <m>
=

>  <Value>
12600

>  <Unit>
nM

>  <Type>
EC50

>  <Ligand Efficiency>


>  <Binding Efficiency>


>  <Surface Efficiency>


>  <Assay Index>
256676

>  <Assay Category>


>  <Assay Organism>
SARS coronavirus

>  <Target ID>
100499

>  <Target Name>
SARS coronavirus

>  <Target Organism>
SARS coronavirus

>  <Target Description>
Target is a complete organism

>  <Sequence Accession>


>  <Reference>
J. Med. Chem. 49 (3), 1198-1201 (2006)

>  <Pubmed ID>
16451084

>  <DOI>
10.1021/jm0507678

>  <InChI-Key>
CAZMERAZKBCKSZ-CVMIBEPCSA-N

>  <Molecular Formula>
C21H30N3O5F

>  <Monoisotopic Mass>
423.216950

>  <Druglikeness>
-15.847

$$$$
Compound 54
Actelion Java MolfileCreator 1.0

 30 30  0  0  1  0  0  0  0  0999 V2000
    0.0000   -0.0000   -0.0000 F   0  0  0  0  0  0  0  0  0  0  0  0
   -1.3039    0.7586   -0.0000 C   0  0  0  0  0  0  0  0  0  0  0  0
   -2.6077    0.0237   -0.0000 C   0  0  0  0  0  0  0  0  0  0  0  0
   -2.6196   -1.4579   -0.0000 O   0  0  0  0  0  0  0  0  0  0  0  0
   -3.9116    0.7823   -0.0000 C   0  0  0  0  0  0  0  0  0  0  0  0
   -5.2154    0.0474   -0.0000 N   0  0  0  0  0  0  0  0  0  0  0  0
   -3.9234    2.2877   -0.0000 C   0  0  0  0  0  0  0  0  0  0  0  0
   -6.5193    0.8060   -0.0000 C   0  0  0  0  0  0  0  0  0  0  0  0
   -2.6433    3.0463   -0.0000 C   0  0  0  0  0  0  0  0  0  0  0  0
   -6.5311    2.3114   -0.0000 O   0  0  0  0  0  0  0  0  0  0  0  0
   -7.8231    0.0711   -0.0000 C   0  0  0  0  0  0  0  0  0  0  0  0
   -2.6551    4.5516   -0.0000 C   0  0  0  0  0  0  0  0  0  0  0  0
   -9.1270    0.8297   -0.0000 N   0  0  0  0  0  0  0  0  0  0  0  0
   -7.8350   -1.4105   -0.0000 C   0  0  0  0  0  0  0  0  0  0  0  0
   -3.9590    5.3102   -0.0000 O   0  0  0  0  0  0  0  0  0  0  0  0
   -1.3750    5.3102   -0.0000 N   0  0  0  0  0  0  0  0  0  0  0  0
  -10.4308    0.0948   -0.0000 C   0  0  0  0  0  0  0  0  0  0  0  0
   -9.1388   -2.1454   -0.0000 C   0  0  0  0  0  0  0  0  0  0  0  0
   -6.5548   -2.1454   -0.0000 C   0  0  0  0  0  0  0  0  0  0  0  0
   -0.0948    4.5753   -0.0000 C   0  0  0  0  0  0  0  0  0  0  0  0
   -1.3868    6.8156   -0.0000 C   0  0  0  0  0  0  0  0  0  0  0  0
  -10.4427   -1.3868   -0.0000 O   0  0  0  0  0  0  0  0  0  0  0  0
  -11.7347    0.8534   -0.0000 O   0  0  0  0  0  0  0  0  0  0  0  0
  -13.0385    0.1185   -0.0000 C   0  0  0  0  0  0  0  0  0  0  0  0
  -14.3424    0.8771   -0.0000 C   0  0  0  0  0  0  0  0  0  0  0  0
  -15.6581    0.1422   -0.0000 C   0  0  0  0  0  0  0  0  0  0  0  0
  -14.3542    2.3943   -0.0000 C   0  0  0  0  0  0  0  0  0  0  0  0
  -16.9619    0.9008   -0.0000 C   0  0  0  0  0  0  0  0  0  0  0  0
  -15.6581    3.1529   -0.0000 C   0  0  0  0  0  0  0  0  0  0  0  0
  -16.9738    2.4180   -0.0000 C   0  0  0  0  0  0  0  0  0  0  0  0
  1  2  1  0  0  0  0
  2  3  1  0  0  0  0
  3  4  2  0  0  0  0
  3  5  1  0  0  0  0
  5  6  1  0  0  0  0
  5  7  1  0  0  0  0
  6  8  1  0  0  0  0
  7  9  1  0  0  0  0
  8 10  2  0  0  0  0
  8 11  1  0  0  0  0
  9 12  1  0  0  0  0
 11 13  1  6  0  0  0
 11 14  1  0  0  0  0
 12 15  2  0  0  0  0
 12 16  1  0  0  0  0
 13 17  1  0  0  0  0
 14 18  1  0  0  0  0
 14 19  1  0  0  0  0
 16 20  1  0  0  0  0
 16 21  1  0  0  0  0
 17 22  2  0  0  0  0
 17 23  1  0  0  0  0
 23 24  1  0  0  0  0
 24 25  1  0  0  0  0
 25 26  2  0  0  0  0
 25 27  1  0  0  0  0
 26 28  1  0  0  0  0
 27 29  2  0  0  0  0
 28 30  2  0  0  0  0
 29 30  1  0  0  0  0
M  END
>  <MolRegNo>
338433

>  <m>
=

>  <Value>
6600

>  <Unit>
nM

>  <Type>
EC50

>  <Ligand Efficiency>


>  <Binding Efficiency>


>  <Surface Efficiency>


>  <Assay Index>
256675

>  <Assay Category>


>  <Assay Organism>
SARS coronavirus

>  <Target ID>
100499

>  <Target Name>
SARS coronavirus

>  <Target Organism>
SARS coronavirus

>  <Target Description>
Target is a complete organism

>  <Sequence Accession>


>  <Reference>
J. Med. Chem. 49 (3), 1198-1201 (2006)

>  <Pubmed ID>
16451084

>  <DOI>
10.1021/jm0507678

>  <InChI-Key>
CAZMERAZKBCKSZ-CVMIBEPCSA-N

>  <Molecular Formula>
C21H30N3O5F

>  <Monoisotopic Mass>
423.216950

>  <Druglikeness>
-15.847

$$$$
Compound 55
Actelion Java MolfileCreator 1.0

 30 30  0  0  1  0  0  0  0  0999 V2000
    0.0000   -0.0000   -0.0000 F   0  0  0  0  0  0  0  0  0  0  0  0
   -1.3039    0.7586   -0.0000 C   0  0  0  0  0  0  0  0  0  0  0  0
   -2.6077    0.0237   -0.0000 C   0  0  0  0  0  0  0  0  0  0  0  0
   -2.6196   -1.4579   -0.0000 O   0  0  0  0  0  0  0  0  0  0  0  0
   -3.9116    0.7823   -0.0000 C   0  0  0  0  0  0  0  0  0  0  0  0
   -5.2154    0.0474   -0.0000 N   0  0  0  0  0  0  0  0  0  0  0  0
   -3.9234    2.2877   -0.0000 C   0  0  0  0  0  0  0  0  0  0  0  0
   -6.5193    0.8060   -0.0000 C   0  0  0  0  0  0  0  0  0  0  0  0
   -2.6433    3.0463   -0.0000 C   0  0  0  0  0  0  0  0  0  0  0  0
   -6.5311    2.3114   -0.0000 O   0  0  0  0  0  0  0  0  0  0  0  0
   -7.8231    0.0711   -0.0000 C   0  0  0  0  0  0  0  0  0  0  0  0
   -2.6551    4.5516   -0.0000 C   0  0  0  0  0  0  0  0  0  0  0  0
   -9.1270    0.8297   -0.0000 N   0  0  0  0  0  0  0  0  0  0  0  0
   -7.8350   -1.4105   -0.0000 C   0  0  0  0  0  0  0  0  0  0  0  0
   -3.9590    5.3102   -0.0000 O   0  0  0  0  0  0  0  0  0  0  0  0
   -1.3750    5.3102   -0.0000 N   0  0  0  0  0  0  0  0  0  0  0  0
  -10.4308    0.0948   -0.0000 C   0  0  0  0  0  0  0  0  0  0  0  0
   -9.1388   -2.1454   -0.0000 C   0  0  0  0  0  0  0  0  0  0  0  0
   -6.5548   -2.1454   -0.0000 C   0  0  0  0  0  0  0  0  0  0  0  0
   -0.0948    4.5753   -0.0000 C   0  0  0  0  0  0  0  0  0  0  0  0
   -1.3868    6.8156   -0.0000 C   0  0  0  0  0  0  0  0  0  0  0  0
  -10.4427   -1.3868   -0.0000 O   0  0  0  0  0  0  0  0  0  0  0  0
  -11.7347    0.8534   -0.0000 O   0  0  0  0  0  0  0  0  0  0  0  0
  -13.0385    0.1185   -0.0000 C   0  0  0  0  0  0  0  0  0  0  0  0
  -14.3424    0.8771   -0.0000 C   0  0  0  0  0  0  0  0  0  0  0  0
  -15.6581    0.1422   -0.0000 C   0  0  0  0  0  0  0  0  0  0  0  0
  -14.3542    2.3943   -0.0000 C   0  0  0  0  0  0  0  0  0  0  0  0
  -16.9619    0.9008   -0.0000 C   0  0  0  0  0  0  0  0  0  0  0  0
  -15.6581    3.1529   -0.0000 C   0  0  0  0  0  0  0  0  0  0  0  0
  -16.9738    2.4180   -0.0000 C   0  0  0  0  0  0  0  0  0  0  0  0
  1  2  1  0  0  0  0
  2  3  1  0  0  0  0
  3  4  2  0  0  0  0
  3  5  1  0  0  0  0
  5  6  1  0  0  0  0
  5  7  1  0  0  0  0
  6  8  1  0  0  0  0
  7  9  1  0  0  0  0
  8 10  2  0  0  0  0
  8 11  1  0  0  0  0
  9 12  1  0  0  0  0
 11 13  1  6  0  0  0
 11 14  1  0  0  0  0
 12 15  2  0  0  0  0
 12 16  1  0  0  0  0
 13 17  1  0  0  0  0
 14 18  1  0  0  0  0
 14 19  1  0  0  0  0
 16 20  1  0  0  0  0
 16 21  1  0  0  0  0
 17 22  2  0  0  0  0
 17 23  1  0  0  0  0
 23 24  1  0  0  0  0
 24 25  1  0  0  0  0
 25 26  2  0  0  0  0
 25 27  1  0  0  0  0
 26 28  1  0  0  0  0
 27 29  2  0  0  0  0
 28 30  2  0  0  0  0
 29 30  1  0  0  0  0
M  END
>  <MolRegNo>
338433

>  <m>
=

>  <Value>
6200

>  <Unit>
nM

>  <Type>
EC50

>  <Ligand Efficiency>


>  <Binding Efficiency>


>  <Surface Efficiency>


>  <Assay Index>
256674

>  <Assay Category>


>  <Assay Organism>
SARS coronavirus

>  <Target ID>
100499

>  <Target Name>
SARS coronavirus

>  <Target Organism>
SARS coronavirus

>  <Target Description>
Target is a complete organism

>  <Sequence Accession>


>  <Reference>
J. Med. Chem. 49 (3), 1198-1201 (2006)

>  <Pubmed ID>
16451084

>  <DOI>
10.1021/jm0507678

>  <InChI-Key>
CAZMERAZKBCKSZ-CVMIBEPCSA-N

>  <Molecular Formula>
C21H30N3O5F

>  <Monoisotopic Mass>
423.216950

>  <Druglikeness>
-15.847

$$$$
Compound 56
Actelion Java MolfileCreator 1.0

 23 26  0  0  0  0  0  0  0  0999 V2000
    0.0000   -0.0000   -0.0000 I   0  0  0  0  0  0  0  0  0  0  0  0
    1.2867   -0.7387   -0.0000 C   0  0  0  0  0  0  0  0  0  0  0  0
    2.5735    0.0238   -0.0000 C   0  0  0  0  0  0  0  0  0  0  0  0
    1.2748   -2.2399   -0.0000 C   0  0  0  0  0  0  0  0  0  0  0  0
    3.8721   -0.7149   -0.0000 C   0  0  0  0  0  0  0  0  0  0  0  0
    2.5616   -2.9786   -0.0000 C   0  0  0  0  0  0  0  0  0  0  0  0
    5.2899   -0.2264   -0.0000 C   0  0  0  0  0  0  0  0  0  0  0  0
    3.8602   -2.2041   -0.0000 C   0  0  0  0  0  0  0  0  0  0  0  0
    5.7427    1.2272   -0.0000 O   0  0  0  0  0  0  0  0  0  0  0  0
    6.1716   -1.4416   -0.0000 C   0  0  0  0  0  0  0  0  0  0  0  0
    5.2780   -2.6569   -0.0000 N   0  0  0  0  0  0  0  0  0  0  0  0
    7.6609   -1.4297   -0.0000 O   0  0  0  0  0  0  0  0  0  0  0  0
    5.7308   -4.0866   -0.0000 C   0  0  0  0  0  0  0  0  0  0  0  0
    4.7181   -5.1946   -0.0000 C   0  0  0  0  0  0  0  0  0  0  0  0
    5.1827   -6.6005   -0.0000 O   0  0  0  0  0  0  0  0  0  0  0  0
    3.2407   -4.8610   -0.0000 C   0  0  0  0  0  0  0  0  0  0  0  0
    4.1462   -7.7085   -0.0000 C   0  0  0  0  0  0  0  0  0  0  0  0
    2.2280   -5.9691   -0.0000 O   0  0  0  0  0  0  0  0  0  0  0  0
    2.6688   -7.3749   -0.0000 C   0  0  0  0  0  0  0  0  0  0  0  0
    4.5870   -9.1263   -0.0000 C   0  0  0  0  0  0  0  0  0  0  0  0
    1.6323   -8.4710   -0.0000 C   0  0  0  0  0  0  0  0  0  0  0  0
    3.5743  -10.2344   -0.0000 C   0  0  0  0  0  0  0  0  0  0  0  0
    2.0731   -9.9008   -0.0000 C   0  0  0  0  0  0  0  0  0  0  0  0
  1  2  1  0  0  0  0
  2  3  2  0  0  0  0
  2  4  1  0  0  0  0
  3  5  1  0  0  0  0
  4  6  2  0  0  0  0
  5  7  1  0  0  0  0
  5  8  2  0  0  0  0
  7  9  2  0  0  0  0
  7 10  1  0  0  0  0
  8 11  1  0  0  0  0
 10 12  2  0  0  0  0
 11 13  1  0  0  0  0
 13 14  1  0  0  0  0
 14 15  1  0  0  0  0
 14 16  1  0  0  0  0
 15 17  1  0  0  0  0
 16 18  1  0  0  0  0
 17 19  2  0  0  0  0
 17 20  1  0  0  0  0
 19 21  1  0  0  0  0
 20 22  2  0  0  0  0
 21 23  2  0  0  0  0
  6  8  1  0  0  0  0
 10 11  1  0  0  0  0
 18 19  1  0  0  0  0
 22 23  1  0  0  0  0
M  END
>  <MolRegNo>
316619

>  <m>
=

>  <Value>
13500

>  <Unit>
nM

>  <Type>
IC50

>  <Ligand Efficiency>
0.29

>  <Binding Efficiency>
11.56

>  <Surface Efficiency>
8.72

>  <Assay Index>
238921

>  <Assay Category>


>  <Assay Organism>
SARS coronavirus

>  <Target ID>
20012

>  <Target Name>
SARS coronavirus 3C-like proteinase

>  <Target Organism>
SARS coronavirus

>  <Target Description>
Target is a single protein chain

>  <Sequence Accession>
P0C6U8

>  <Reference>
Bioorg. Med. Chem. Lett. 15 (12), 3058-3062 (2005)

>  <Pubmed ID>
15896959

>  <DOI>
10.1016/j.bmcl.2005.04.027

>  <InChI-Key>
CDKFEFPWJYFQEG-UHFFFAOYSA-N

>  <Molecular Formula>
C17H12NO4I

>  <Monoisotopic Mass>
420.981107

>  <Druglikeness>
0.71716

$$$$
Compound 57
Actelion Java MolfileCreator 1.0

 25 28  0  0  0  0  0  0  0  0999 V2000
    0.0000   -0.0000   -0.0000 O   0  0  0  0  0  0  0  0  0  0  0  0
   -1.5044    0.0118   -0.0000 C   0  0  0  0  0  0  0  0  0  0  0  0
   -2.3976   -1.1988   -0.0000 N   0  0  0  0  0  0  0  0  0  0  0  0
   -2.3976    1.2458   -0.0000 C   0  0  0  0  0  0  0  0  0  0  0  0
   -3.8433   -0.7287   -0.0000 C   0  0  0  0  0  0  0  0  0  0  0  0
   -1.9510   -2.6092   -0.0000 C   0  0  0  0  0  0  0  0  0  0  0  0
   -1.9510    2.6797   -0.0000 O   0  0  0  0  0  0  0  0  0  0  0  0
   -3.8433    0.7875   -0.0000 C   0  0  0  0  0  0  0  0  0  0  0  0
   -5.1479   -1.4691   -0.0000 C   0  0  0  0  0  0  0  0  0  0  0  0
   -2.9618   -3.7023   -0.0000 C   0  0  0  0  0  0  0  0  0  0  0  0
   -5.1596    1.5397   -0.0000 C   0  0  0  0  0  0  0  0  0  0  0  0
   -6.4525   -0.7052   -0.0000 C   0  0  0  0  0  0  0  0  0  0  0  0
   -2.5034   -5.1009   -0.0000 C   0  0  0  0  0  0  0  0  0  0  0  0
   -4.4309   -3.3732   -0.0000 C   0  0  0  0  0  0  0  0  0  0  0  0
   -6.4525    0.7992   -0.0000 C   0  0  0  0  0  0  0  0  0  0  0  0
   -3.5024   -6.2057   -0.0000 C   0  0  0  0  0  0  0  0  0  0  0  0
   -5.4417   -4.4662   -0.0000 C   0  0  0  0  0  0  0  0  0  0  0  0
   -7.7571    1.5514   -0.0000 C   0  0  0  0  0  0  0  0  0  0  0  0
   -4.9716   -5.8883   -0.0000 C   0  0  0  0  0  0  0  0  0  0  0  0
   -3.0441   -7.6043   -0.0000 C   0  0  0  0  0  0  0  0  0  0  0  0
   -7.7688    3.0558   -0.0000 O   0  0  0  0  0  0  0  0  0  0  0  0
   -9.0617    0.8110   -0.0000 O   0  0  0  0  0  0  0  0  0  0  0  0
   -5.9824   -6.9814   -0.0000 C   0  0  0  0  0  0  0  0  0  0  0  0
   -4.0431   -8.7091   -0.0000 C   0  0  0  0  0  0  0  0  0  0  0  0
   -5.5357   -8.3918   -0.0000 C   0  0  0  0  0  0  0  0  0  0  0  0
  1  2  2  0  0  0  0
  2  3  1  0  0  0  0
  2  4  1  0  0  0  0
  3  5  1  0  0  0  0
  3  6  1  0  0  0  0
  4  7  2  0  0  0  0
  4  8  1  0  0  0  0
  5  9  1  0  0  0  0
  6 10  1  0  0  0  0
  8 11  1  0  0  0  0
  9 12  2  0  0  0  0
 10 13  2  0  0  0  0
 10 14  1  0  0  0  0
 11 15  2  0  0  0  0
 13 16  1  0  0  0  0
 14 17  2  0  0  0  0
 15 18  1  0  0  0  0
 16 19  1  0  0  0  0
 16 20  2  0  0  0  0
 18 21  2  0  0  0  0
 18 22  1  0  0  0  0
 19 23  2  0  0  0  0
 20 24  1  0  0  0  0
 23 25  1  0  0  0  0
  5  8  2  0  0  0  0
 12 15  1  0  0  0  0
 17 19  1  0  0  0  0
 24 25  2  0  0  0  0
M  END
>  <MolRegNo>
348572

>  <m>
=

>  <Value>
46

>  <Unit>
%

>  <Type>
Inhibition

>  <Ligand Efficiency>


>  <Binding Efficiency>


>  <Surface Efficiency>


>  <Assay Index>
262887

>  <Assay Category>


>  <Assay Organism>
SARS coronavirus

>  <Target ID>
20012

>  <Target Name>
SARS coronavirus 3C-like proteinase

>  <Target Organism>
SARS coronavirus

>  <Target Description>
Target is a single protein chain

>  <Sequence Accession>
P0C6U8

>  <Reference>
J. Med. Chem. 49 (12), 3440-3443 (2006)

>  <Pubmed ID>
16759084

>  <DOI>
10.1021/jm0602357

>  <InChI-Key>
CDQXORKPLJMKQR-UHFFFAOYSA-N

>  <Molecular Formula>
C20H13NO4

>  <Monoisotopic Mass>
331.084459

>  <Druglikeness>
-0.11056

$$$$
Compound 58
Actelion Java MolfileCreator 1.0

 23 24  0  0  0  0  0  0  0  0999 V2000
    0.0000   -0.0000   -0.0000 S   0  0  0  0  0  0  0  0  0  0  0  0
    1.2831   -0.7366   -0.0000 C   0  0  0  0  0  0  0  0  0  0  0  0
   -1.3068   -0.7366   -0.0000 C   0  0  0  0  0  0  0  0  0  0  0  0
    1.2593   -2.2216   -0.0000 N   0  0  0  0  0  0  0  0  0  0  0  0
    2.5543    0.0356   -0.0000 N   0  0  0  0  0  0  0  0  0  0  0  0
   -2.6137    0.0238   -0.0000 C   0  0  0  0  0  0  0  0  0  0  0  0
    2.5424   -2.9582   -0.0000 C   0  0  0  0  0  0  0  0  0  0  0  0
    3.8373   -0.6891   -0.0000 C   0  0  0  0  0  0  0  0  0  0  0  0
   -2.6255    1.5326   -0.0000 O   0  0  0  0  0  0  0  0  0  0  0  0
   -3.9205   -0.7128   -0.0000 N   0  0  0  0  0  0  0  0  0  0  0  0
    2.5305   -4.4432   -0.0000 O   0  0  0  0  0  0  0  0  0  0  0  0
    3.8255   -2.1979   -0.0000 C   0  0  0  0  0  0  0  0  0  0  0  0
    5.1204    0.0832   -0.0000 C   0  0  0  0  0  0  0  0  0  0  0  0
   -5.2273    0.0475   -0.0000 C   0  0  0  0  0  0  0  0  0  0  0  0
    5.1085   -2.9344   -0.0000 C   0  0  0  0  0  0  0  0  0  0  0  0
   -6.5460   -0.6891   -0.0000 C   0  0  0  0  0  0  0  0  0  0  0  0
   -5.2392    1.5682   -0.0000 C   0  0  0  0  0  0  0  0  0  0  0  0
   -7.8529    0.0713   -0.0000 C   0  0  0  0  0  0  0  0  0  0  0  0
   -6.5579    2.3167   -0.0000 C   0  0  0  0  0  0  0  0  0  0  0  0
   -7.8648    1.5801   -0.0000 C   0  0  0  0  0  0  0  0  0  0  0  0
   -9.1835    2.3404   -0.0000 N   0  0  0  0  0  0  0  0  0  0  0  0
  -10.4903    1.6038   -0.0000 O   0  0  0  0  0  0  0  0  0  0  0  0
   -9.1954    3.8492   -0.0000 O   0  0  0  0  0  0  0  0  0  0  0  0
  1  2  1  0  0  0  0
  1  3  1  0  0  0  0
  2  4  2  0  0  0  0
  2  5  1  0  0  0  0
  3  6  1  0  0  0  0
  4  7  1  0  0  0  0
  5  8  2  0  0  0  0
  6  9  2  0  0  0  0
  6 10  1  0  0  0  0
  7 11  1  0  0  0  0
  7 12  2  0  0  0  0
  8 13  1  0  0  0  0
 10 14  1  0  0  0  0
 12 15  1  0  0  0  0
 14 16  2  0  0  0  0
 14 17  1  0  0  0  0
 16 18  1  0  0  0  0
 17 19  2  0  0  0  0
 18 20  2  0  0  0  0
 20 21  1  0  0  0  0
 21 22  2  0  0  0  0
 21 23  1  0  0  0  0
  8 12  1  0  0  0  0
 19 20  1  0  0  0  0
M  CHG  2  21   1  23  -1
M  END
>  <MolRegNo>
349433

>  <m>
<

>  <Value>
1.0e12

>  <Unit>
nM

>  <Type>
IC50

>  <Ligand Efficiency>


>  <Binding Efficiency>


>  <Surface Efficiency>


>  <Assay Index>
262926

>  <Assay Category>


>  <Assay Organism>
SARS coronavirus

>  <Target ID>
20012

>  <Target Name>
SARS coronavirus 3C-like proteinase

>  <Target Organism>
SARS coronavirus

>  <Target Description>
Target is a single protein chain

>  <Sequence Accession>
P0C6U8

>  <Reference>
J. Med. Chem. 49 (12), 3485-3495 (2006)

>  <Pubmed ID>
16759091

>  <DOI>
10.1021/jm050852f

>  <InChI-Key>
CGYVDJOFAZUVFX-UHFFFAOYSA-N

>  <Molecular Formula>
C14H14N4O4S

>  <Monoisotopic Mass>
334.073576

>  <Druglikeness>
-3.7426

$$$$
Compound 59
Actelion Java MolfileCreator 1.0

 23 24  0  0  0  0  0  0  0  0999 V2000
    0.0000   -0.0000   -0.0000 S   0  0  0  0  0  0  0  0  0  0  0  0
    1.2831   -0.7366   -0.0000 C   0  0  0  0  0  0  0  0  0  0  0  0
   -1.3068   -0.7366   -0.0000 C   0  0  0  0  0  0  0  0  0  0  0  0
    1.2593   -2.2216   -0.0000 N   0  0  0  0  0  0  0  0  0  0  0  0
    2.5543    0.0356   -0.0000 N   0  0  0  0  0  0  0  0  0  0  0  0
   -2.6137    0.0238   -0.0000 C   0  0  0  0  0  0  0  0  0  0  0  0
    2.5424   -2.9582   -0.0000 C   0  0  0  0  0  0  0  0  0  0  0  0
    3.8373   -0.6891   -0.0000 C   0  0  0  0  0  0  0  0  0  0  0  0
   -2.6255    1.5326   -0.0000 O   0  0  0  0  0  0  0  0  0  0  0  0
   -3.9205   -0.7128   -0.0000 N   0  0  0  0  0  0  0  0  0  0  0  0
    2.5305   -4.4432   -0.0000 O   0  0  0  0  0  0  0  0  0  0  0  0
    3.8255   -2.1979   -0.0000 C   0  0  0  0  0  0  0  0  0  0  0  0
    5.1204    0.0832   -0.0000 C   0  0  0  0  0  0  0  0  0  0  0  0
   -5.2273    0.0475   -0.0000 C   0  0  0  0  0  0  0  0  0  0  0  0
    5.1085   -2.9344   -0.0000 C   0  0  0  0  0  0  0  0  0  0  0  0
   -6.5460   -0.6891   -0.0000 C   0  0  0  0  0  0  0  0  0  0  0  0
   -5.2392    1.5682   -0.0000 C   0  0  0  0  0  0  0  0  0  0  0  0
   -7.8529    0.0713   -0.0000 C   0  0  0  0  0  0  0  0  0  0  0  0
   -6.5579    2.3167   -0.0000 C   0  0  0  0  0  0  0  0  0  0  0  0
   -7.8648    1.5801   -0.0000 C   0  0  0  0  0  0  0  0  0  0  0  0
   -9.1835    2.3404   -0.0000 N   0  0  0  0  0  0  0  0  0  0  0  0
  -10.4903    1.6038   -0.0000 O   0  0  0  0  0  0  0  0  0  0  0  0
   -9.1954    3.8492   -0.0000 O   0  0  0  0  0  0  0  0  0  0  0  0
  1  2  1  0  0  0  0
  1  3  1  0  0  0  0
  2  4  2  0  0  0  0
  2  5  1  0  0  0  0
  3  6  1  0  0  0  0
  4  7  1  0  0  0  0
  5  8  2  0  0  0  0
  6  9  2  0  0  0  0
  6 10  1  0  0  0  0
  7 11  1  0  0  0  0
  7 12  2  0  0  0  0
  8 13  1  0  0  0  0
 10 14  1  0  0  0  0
 12 15  1  0  0  0  0
 14 16  2  0  0  0  0
 14 17  1  0  0  0  0
 16 18  1  0  0  0  0
 17 19  2  0  0  0  0
 18 20  2  0  0  0  0
 20 21  1  0  0  0  0
 21 22  2  0  0  0  0
 21 23  1  0  0  0  0
  8 12  1  0  0  0  0
 19 20  1  0  0  0  0
M  CHG  2  21   1  23  -1
M  END
>  <MolRegNo>
349433

>  <m>
>

>  <Value>
1.0e6

>  <Unit>
nM

>  <Type>
IC50

>  <Ligand Efficiency>


>  <Binding Efficiency>


>  <Surface Efficiency>


>  <Assay Index>
262926

>  <Assay Category>


>  <Assay Organism>
SARS coronavirus

>  <Target ID>
20012

>  <Target Name>
SARS coronavirus 3C-like proteinase

>  <Target Organism>
SARS coronavirus

>  <Target Description>
Target is a single protein chain

>  <Sequence Accession>
P0C6U8

>  <Reference>
J. Med. Chem. 49 (12), 3485-3495 (2006)

>  <Pubmed ID>
16759091

>  <DOI>
10.1021/jm050852f

>  <InChI-Key>
CGYVDJOFAZUVFX-UHFFFAOYSA-N

>  <Molecular Formula>
C14H14N4O4S

>  <Monoisotopic Mass>
334.073576

>  <Druglikeness>
-3.7426

$$$$
Compound 60
Actelion Java MolfileCreator 1.0

 28 30  0  0  0  0  0  0  0  0999 V2000
    0.0000   -0.0000   -0.0000 S   0  0  0  0  0  0  0  0  0  0  0  0
    1.2839   -0.7371   -0.0000 C   0  0  0  0  0  0  0  0  0  0  0  0
   -1.3077   -0.7371   -0.0000 C   0  0  0  0  0  0  0  0  0  0  0  0
    2.5560    0.0357   -0.0000 N   0  0  0  0  0  0  0  0  0  0  0  0
    1.2601   -2.2231   -0.0000 N   0  0  0  0  0  0  0  0  0  0  0  0
   -2.6154    0.0238   -0.0000 C   0  0  0  0  0  0  0  0  0  0  0  0
    3.8399   -0.6895   -0.0000 C   0  0  0  0  0  0  0  0  0  0  0  0
    2.5441   -2.9601   -0.0000 C   0  0  0  0  0  0  0  0  0  0  0  0
   -2.6273    1.5336   -0.0000 O   0  0  0  0  0  0  0  0  0  0  0  0
   -3.9231   -0.7133   -0.0000 N   0  0  0  0  0  0  0  0  0  0  0  0
    5.1238    0.0832   -0.0000 C   0  0  0  0  0  0  0  0  0  0  0  0
    3.8399   -2.1874   -0.0000 C   0  0  0  0  0  0  0  0  0  0  0  0
   -5.2308    0.0476   -0.0000 C   0  0  0  0  0  0  0  0  0  0  0  0
    6.4077   -0.6538   -0.0000 C   0  0  0  0  0  0  0  0  0  0  0  0
    5.1000    1.5930   -0.0000 C   0  0  0  0  0  0  0  0  0  0  0  0
   -6.5504   -0.6895   -0.0000 C   0  0  0  0  0  0  0  0  0  0  0  0
   -5.2427    1.5692   -0.0000 C   0  0  0  0  0  0  0  0  0  0  0  0
    7.6916    0.1070   -0.0000 C   0  0  0  0  0  0  0  0  0  0  0  0
    6.3958    2.3539   -0.0000 C   0  0  0  0  0  0  0  0  0  0  0  0
   -7.8581    0.0713   -0.0000 C   0  0  0  0  0  0  0  0  0  0  0  0
   -6.5623    2.3182   -0.0000 C   0  0  0  0  0  0  0  0  0  0  0  0
    7.6797    1.6168   -0.0000 C   0  0  0  0  0  0  0  0  0  0  0  0
   -7.8700    1.5811   -0.0000 C   0  0  0  0  0  0  0  0  0  0  0  0
    8.9637    2.3776   -0.0000 O   0  0  0  0  0  0  0  0  0  0  0  0
   -9.1776    2.3420   -0.0000 C   0  0  0  0  0  0  0  0  0  0  0  0
   10.2476    1.6406   -0.0000 C   0  0  0  0  0  0  0  0  0  0  0  0
   -9.1895    3.8518   -0.0000 C   0  0  0  0  0  0  0  0  0  0  0  0
  -10.4853    1.6049   -0.0000 C   0  0  0  0  0  0  0  0  0  0  0  0
  1  2  1  0  0  0  0
  1  3  1  0  0  0  0
  2  4  2  0  0  0  0
  2  5  1  0  0  0  0
  3  6  1  0  0  0  0
  4  7  1  0  0  0  0
  5  8  2  0  0  0  0
  6  9  2  0  0  0  0
  6 10  1  0  0  0  0
  7 11  1  0  0  0  0
  7 12  2  0  0  0  0
 10 13  1  0  0  0  0
 11 14  2  0  0  0  0
 11 15  1  0  0  0  0
 13 16  2  0  0  0  0
 13 17  1  0  0  0  0
 14 18  1  0  0  0  0
 15 19  2  0  0  0  0
 16 20  1  0  0  0  0
 17 21  2  0  0  0  0
 18 22  2  0  0  0  0
 20 23  2  0  0  0  0
 22 24  1  0  0  0  0
 23 25  1  0  0  0  0
 24 26  1  0  0  0  0
 25 27  1  0  0  0  0
 25 28  1  0  0  0  0
  8 12  1  0  0  0  0
 19 22  1  0  0  0  0
 21 23  1  0  0  0  0
M  END
>  <MolRegNo>
348816

>  <m>
=

>  <Value>
2.4547e12

>  <Unit>
nM

>  <Type>
IC50

>  <Ligand Efficiency>


>  <Binding Efficiency>


>  <Surface Efficiency>


>  <Assay Index>
262926

>  <Assay Category>


>  <Assay Organism>
SARS coronavirus

>  <Target ID>
20012

>  <Target Name>
SARS coronavirus 3C-like proteinase

>  <Target Organism>
SARS coronavirus

>  <Target Description>
Target is a single protein chain

>  <Sequence Accession>
P0C6U8

>  <Reference>
J. Med. Chem. 49 (12), 3485-3495 (2006)

>  <Pubmed ID>
16759091

>  <DOI>
10.1021/jm050852f

>  <InChI-Key>
CJBZKDWWJIGHRP-UHFFFAOYSA-N

>  <Molecular Formula>
C22H23N3O2S

>  <Monoisotopic Mass>
393.151097

>  <Druglikeness>
1.2225

$$$$
Compound 61
Actelion Java MolfileCreator 1.0

 28 30  0  0  0  0  0  0  0  0999 V2000
    0.0000   -0.0000   -0.0000 S   0  0  0  0  0  0  0  0  0  0  0  0
    1.2839   -0.7371   -0.0000 C   0  0  0  0  0  0  0  0  0  0  0  0
   -1.3077   -0.7371   -0.0000 C   0  0  0  0  0  0  0  0  0  0  0  0
    2.5560    0.0357   -0.0000 N   0  0  0  0  0  0  0  0  0  0  0  0
    1.2601   -2.2231   -0.0000 N   0  0  0  0  0  0  0  0  0  0  0  0
   -2.6154    0.0238   -0.0000 C   0  0  0  0  0  0  0  0  0  0  0  0
    3.8399   -0.6895   -0.0000 C   0  0  0  0  0  0  0  0  0  0  0  0
    2.5441   -2.9601   -0.0000 C   0  0  0  0  0  0  0  0  0  0  0  0
   -2.6273    1.5336   -0.0000 O   0  0  0  0  0  0  0  0  0  0  0  0
   -3.9231   -0.7133   -0.0000 N   0  0  0  0  0  0  0  0  0  0  0  0
    5.1238    0.0832   -0.0000 C   0  0  0  0  0  0  0  0  0  0  0  0
    3.8399   -2.1874   -0.0000 C   0  0  0  0  0  0  0  0  0  0  0  0
   -5.2308    0.0476   -0.0000 C   0  0  0  0  0  0  0  0  0  0  0  0
    6.4077   -0.6538   -0.0000 C   0  0  0  0  0  0  0  0  0  0  0  0
    5.1000    1.5930   -0.0000 C   0  0  0  0  0  0  0  0  0  0  0  0
   -6.5504   -0.6895   -0.0000 C   0  0  0  0  0  0  0  0  0  0  0  0
   -5.2427    1.5692   -0.0000 C   0  0  0  0  0  0  0  0  0  0  0  0
    7.6916    0.1070   -0.0000 C   0  0  0  0  0  0  0  0  0  0  0  0
    6.3958    2.3539   -0.0000 C   0  0  0  0  0  0  0  0  0  0  0  0
   -7.8581    0.0713   -0.0000 C   0  0  0  0  0  0  0  0  0  0  0  0
   -6.5623    2.3182   -0.0000 C   0  0  0  0  0  0  0  0  0  0  0  0
    7.6797    1.6168   -0.0000 C   0  0  0  0  0  0  0  0  0  0  0  0
   -7.8700    1.5811   -0.0000 C   0  0  0  0  0  0  0  0  0  0  0  0
    8.9637    2.3776   -0.0000 O   0  0  0  0  0  0  0  0  0  0  0  0
   -9.1776    2.3420   -0.0000 C   0  0  0  0  0  0  0  0  0  0  0  0
   10.2476    1.6406   -0.0000 C   0  0  0  0  0  0  0  0  0  0  0  0
   -9.1895    3.8518   -0.0000 C   0  0  0  0  0  0  0  0  0  0  0  0
  -10.4853    1.6049   -0.0000 C   0  0  0  0  0  0  0  0  0  0  0  0
  1  2  1  0  0  0  0
  1  3  1  0  0  0  0
  2  4  2  0  0  0  0
  2  5  1  0  0  0  0
  3  6  1  0  0  0  0
  4  7  1  0  0  0  0
  5  8  2  0  0  0  0
  6  9  2  0  0  0  0
  6 10  1  0  0  0  0
  7 11  1  0  0  0  0
  7 12  2  0  0  0  0
 10 13  1  0  0  0  0
 11 14  2  0  0  0  0
 11 15  1  0  0  0  0
 13 16  2  0  0  0  0
 13 17  1  0  0  0  0
 14 18  1  0  0  0  0
 15 19  2  0  0  0  0
 16 20  1  0  0  0  0
 17 21  2  0  0  0  0
 18 22  2  0  0  0  0
 20 23  2  0  0  0  0
 22 24  1  0  0  0  0
 23 25  1  0  0  0  0
 24 26  1  0  0  0  0
 25 27  1  0  0  0  0
 25 28  1  0  0  0  0
  8 12  1  0  0  0  0
 19 22  1  0  0  0  0
 21 23  1  0  0  0  0
M  END
>  <MolRegNo>
348816

>  <m>
=

>  <Value>
4.0e5

>  <Unit>
nM

>  <Type>
IC50

>  <Ligand Efficiency>


>  <Binding Efficiency>


>  <Surface Efficiency>


>  <Assay Index>
262926

>  <Assay Category>


>  <Assay Organism>
SARS coronavirus

>  <Target ID>
20012

>  <Target Name>
SARS coronavirus 3C-like proteinase

>  <Target Organism>
SARS coronavirus

>  <Target Description>
Target is a single protein chain

>  <Sequence Accession>
P0C6U8

>  <Reference>
J. Med. Chem. 49 (12), 3485-3495 (2006)

>  <Pubmed ID>
16759091

>  <DOI>
10.1021/jm050852f

>  <InChI-Key>
CJBZKDWWJIGHRP-UHFFFAOYSA-N

>  <Molecular Formula>
C22H23N3O2S

>  <Monoisotopic Mass>
393.151097

>  <Druglikeness>
1.2225

$$$$
Compound 62
Actelion Java MolfileCreator 1.0

 26 30  0  0  0  0  0  0  0  0999 V2000
    0.0000   -0.0000   -0.0000 O   0  0  0  0  0  0  0  0  0  0  0  0
   -0.3095   -1.4640   -0.0000 C   0  0  0  0  0  0  0  0  0  0  0  0
    0.6903   -2.5590   -0.0000 O   0  0  0  0  0  0  0  0  0  0  0  0
   -1.6901   -2.0710   -0.0000 C   0  0  0  0  0  0  0  0  0  0  0  0
   -0.0595   -3.8563   -0.0000 C   0  0  0  0  0  0  0  0  0  0  0  0
   -3.0113   -1.3212   -0.0000 C   0  0  0  0  0  0  0  0  0  0  0  0
   -1.5473   -3.5469   -0.0000 C   0  0  0  0  0  0  0  0  0  0  0  0
   -4.3205   -2.0710   -0.0000 C   0  0  0  0  0  0  0  0  0  0  0  0
   -2.6661   -4.5467   -0.0000 C   0  0  0  0  0  0  0  0  0  0  0  0
   -5.6417   -1.3212   -0.0000 C   0  0  0  0  0  0  0  0  0  0  0  0
   -4.3324   -3.5707   -0.0000 C   0  0  0  0  0  0  0  0  0  0  0  0
   -2.3567   -5.9988   -0.0000 C   0  0  0  0  0  0  0  0  0  0  0  0
   -6.9390   -2.0591   -0.0000 C   0  0  0  0  0  0  0  0  0  0  0  0
   -5.6536   -4.3086   -0.0000 C   0  0  0  0  0  0  0  0  0  0  0  0
   -0.9403   -6.4391   -0.0000 C   0  0  0  0  0  0  0  0  0  0  0  0
   -3.4874   -6.9866   -0.0000 C   0  0  0  0  0  0  0  0  0  0  0  0
   -8.3792   -1.5830   -0.0000 O   0  0  0  0  0  0  0  0  0  0  0  0
   -6.9509   -3.5588   -0.0000 C   0  0  0  0  0  0  0  0  0  0  0  0
   -0.6308   -7.8912   -0.0000 C   0  0  0  0  0  0  0  0  0  0  0  0
   -3.1779   -8.4387   -0.0000 C   0  0  0  0  0  0  0  0  0  0  0  0
   -9.2838   -2.7851   -0.0000 C   0  0  0  0  0  0  0  0  0  0  0  0
   -8.4030   -4.0111   -0.0000 O   0  0  0  0  0  0  0  0  0  0  0  0
    0.6665   -8.6173   -0.0000 O   0  0  0  0  0  0  0  0  0  0  0  0
   -1.7496   -8.8910   -0.0000 C   0  0  0  0  0  0  0  0  0  0  0  0
    0.3571  -10.0812   -0.0000 C   0  0  0  0  0  0  0  0  0  0  0  0
   -1.1307  -10.2479   -0.0000 O   0  0  0  0  0  0  0  0  0  0  0  0
  1  2  2  0  0  0  0
  2  3  1  0  0  0  0
  2  4  1  0  0  0  0
  3  5  1  0  0  0  0
  4  6  2  0  0  0  0
  4  7  1  0  0  0  0
  6  8  1  0  0  0  0
  7  9  1  6  0  0  0
  8 10  2  0  0  0  0
  8 11  1  0  0  0  0
  9 12  1  0  0  0  0
 10 13  1  0  0  0  0
 11 14  2  0  0  0  0
 12 15  2  0  0  0  0
 12 16  1  0  0  0  0
 13 17  1  0  0  0  0
 13 18  2  0  0  0  0
 15 19  1  0  0  0  0
 16 20  2  0  0  0  0
 17 21  1  0  0  0  0
 18 22  1  0  0  0  0
 19 23  1  0  0  0  0
 19 24  2  0  0  0  0
 23 25  1  0  0  0  0
 24 26  1  0  0  0  0
  5  7  1  0  0  0  0
 14 18  1  0  0  0  0
 20 24  1  0  0  0  0
 21 22  1  0  0  0  0
 25 26  1  0  0  0  0
M  END
>  <MolRegNo>
387494

>  <m>
=

>  <Value>
1130

>  <Unit>
nM

>  <Type>
EC50

>  <Ligand Efficiency>


>  <Binding Efficiency>


>  <Surface Efficiency>


>  <Assay Index>
294026

>  <Assay Category>


>  <Assay Organism>
SARS coronavirus

>  <Target ID>
100499

>  <Target Name>
SARS coronavirus

>  <Target Organism>
SARS coronavirus

>  <Target Description>
Target is a complete organism

>  <Sequence Accession>


>  <Reference>
J. Med. Chem. 50 (17), 4087-4095 (2007)

>  <Pubmed ID>
17663539

>  <DOI>
10.1021/jm070295s

>  <InChI-Key>
CMJGAYUQSLJSCR-CQSZACIVSA-N

>  <Molecular Formula>
C20H16O6

>  <Monoisotopic Mass>
352.094690

>  <Druglikeness>
0.75401

$$$$
Compound 63
Actelion Java MolfileCreator 1.0

 26 30  0  0  0  0  0  0  0  0999 V2000
    0.0000   -0.0000   -0.0000 O   0  0  0  0  0  0  0  0  0  0  0  0
   -0.3095   -1.4640   -0.0000 C   0  0  0  0  0  0  0  0  0  0  0  0
    0.6903   -2.5590   -0.0000 O   0  0  0  0  0  0  0  0  0  0  0  0
   -1.6901   -2.0710   -0.0000 C   0  0  0  0  0  0  0  0  0  0  0  0
   -0.0595   -3.8563   -0.0000 C   0  0  0  0  0  0  0  0  0  0  0  0
   -3.0113   -1.3212   -0.0000 C   0  0  0  0  0  0  0  0  0  0  0  0
   -1.5473   -3.5469   -0.0000 C   0  0  0  0  0  0  0  0  0  0  0  0
   -4.3205   -2.0710   -0.0000 C   0  0  0  0  0  0  0  0  0  0  0  0
   -2.6661   -4.5467   -0.0000 C   0  0  0  0  0  0  0  0  0  0  0  0
   -5.6417   -1.3212   -0.0000 C   0  0  0  0  0  0  0  0  0  0  0  0
   -4.3324   -3.5707   -0.0000 C   0  0  0  0  0  0  0  0  0  0  0  0
   -2.3567   -5.9988   -0.0000 C   0  0  0  0  0  0  0  0  0  0  0  0
   -6.9390   -2.0591   -0.0000 C   0  0  0  0  0  0  0  0  0  0  0  0
   -5.6536   -4.3086   -0.0000 C   0  0  0  0  0  0  0  0  0  0  0  0
   -0.9403   -6.4391   -0.0000 C   0  0  0  0  0  0  0  0  0  0  0  0
   -3.4874   -6.9866   -0.0000 C   0  0  0  0  0  0  0  0  0  0  0  0
   -8.3792   -1.5830   -0.0000 O   0  0  0  0  0  0  0  0  0  0  0  0
   -6.9509   -3.5588   -0.0000 C   0  0  0  0  0  0  0  0  0  0  0  0
   -0.6308   -7.8912   -0.0000 C   0  0  0  0  0  0  0  0  0  0  0  0
   -3.1779   -8.4387   -0.0000 C   0  0  0  0  0  0  0  0  0  0  0  0
   -9.2838   -2.7851   -0.0000 C   0  0  0  0  0  0  0  0  0  0  0  0
   -8.4030   -4.0111   -0.0000 O   0  0  0  0  0  0  0  0  0  0  0  0
    0.6665   -8.6173   -0.0000 O   0  0  0  0  0  0  0  0  0  0  0  0
   -1.7496   -8.8910   -0.0000 C   0  0  0  0  0  0  0  0  0  0  0  0
    0.3571  -10.0812   -0.0000 C   0  0  0  0  0  0  0  0  0  0  0  0
   -1.1307  -10.2479   -0.0000 O   0  0  0  0  0  0  0  0  0  0  0  0
  1  2  2  0  0  0  0
  2  3  1  0  0  0  0
  2  4  1  0  0  0  0
  3  5  1  0  0  0  0
  4  6  2  0  0  0  0
  4  7  1  0  0  0  0
  6  8  1  0  0  0  0
  7  9  1  6  0  0  0
  8 10  2  0  0  0  0
  8 11  1  0  0  0  0
  9 12  1  0  0  0  0
 10 13  1  0  0  0  0
 11 14  2  0  0  0  0
 12 15  2  0  0  0  0
 12 16  1  0  0  0  0
 13 17  1  0  0  0  0
 13 18  2  0  0  0  0
 15 19  1  0  0  0  0
 16 20  2  0  0  0  0
 17 21  1  0  0  0  0
 18 22  1  0  0  0  0
 19 23  1  0  0  0  0
 19 24  2  0  0  0  0
 23 25  1  0  0  0  0
 24 26  1  0  0  0  0
  5  7  1  0  0  0  0
 14 18  1  0  0  0  0
 20 24  1  0  0  0  0
 21 22  1  0  0  0  0
 25 26  1  0  0  0  0
M  END
>  <MolRegNo>
387494

>  <m>
<

>  <Value>
25

>  <Unit>
%

>  <Type>
Inhibition

>  <Ligand Efficiency>


>  <Binding Efficiency>


>  <Surface Efficiency>


>  <Assay Index>
294022

>  <Assay Category>


>  <Assay Organism>
SARS coronavirus

>  <Target ID>
100499

>  <Target Name>
SARS coronavirus

>  <Target Organism>
SARS coronavirus

>  <Target Description>
Target is a complete organism

>  <Sequence Accession>


>  <Reference>
J. Med. Chem. 50 (17), 4087-4095 (2007)

>  <Pubmed ID>
17663539

>  <DOI>
10.1021/jm070295s

>  <InChI-Key>
CMJGAYUQSLJSCR-CQSZACIVSA-N

>  <Molecular Formula>
C20H16O6

>  <Monoisotopic Mass>
352.094690

>  <Druglikeness>
0.75401

$$$$
Compound 64
Actelion Java MolfileCreator 1.0

 26 30  0  0  0  0  0  0  0  0999 V2000
    0.0000   -0.0000   -0.0000 O   0  0  0  0  0  0  0  0  0  0  0  0
   -0.3095   -1.4640   -0.0000 C   0  0  0  0  0  0  0  0  0  0  0  0
    0.6903   -2.5590   -0.0000 O   0  0  0  0  0  0  0  0  0  0  0  0
   -1.6901   -2.0710   -0.0000 C   0  0  0  0  0  0  0  0  0  0  0  0
   -0.0595   -3.8563   -0.0000 C   0  0  0  0  0  0  0  0  0  0  0  0
   -3.0113   -1.3212   -0.0000 C   0  0  0  0  0  0  0  0  0  0  0  0
   -1.5473   -3.5469   -0.0000 C   0  0  0  0  0  0  0  0  0  0  0  0
   -4.3205   -2.0710   -0.0000 C   0  0  0  0  0  0  0  0  0  0  0  0
   -2.6661   -4.5467   -0.0000 C   0  0  0  0  0  0  0  0  0  0  0  0
   -5.6417   -1.3212   -0.0000 C   0  0  0  0  0  0  0  0  0  0  0  0
   -4.3324   -3.5707   -0.0000 C   0  0  0  0  0  0  0  0  0  0  0  0
   -2.3567   -5.9988   -0.0000 C   0  0  0  0  0  0  0  0  0  0  0  0
   -6.9390   -2.0591   -0.0000 C   0  0  0  0  0  0  0  0  0  0  0  0
   -5.6536   -4.3086   -0.0000 C   0  0  0  0  0  0  0  0  0  0  0  0
   -0.9403   -6.4391   -0.0000 C   0  0  0  0  0  0  0  0  0  0  0  0
   -3.4874   -6.9866   -0.0000 C   0  0  0  0  0  0  0  0  0  0  0  0
   -8.3792   -1.5830   -0.0000 O   0  0  0  0  0  0  0  0  0  0  0  0
   -6.9509   -3.5588   -0.0000 C   0  0  0  0  0  0  0  0  0  0  0  0
   -0.6308   -7.8912   -0.0000 C   0  0  0  0  0  0  0  0  0  0  0  0
   -3.1779   -8.4387   -0.0000 C   0  0  0  0  0  0  0  0  0  0  0  0
   -9.2838   -2.7851   -0.0000 C   0  0  0  0  0  0  0  0  0  0  0  0
   -8.4030   -4.0111   -0.0000 O   0  0  0  0  0  0  0  0  0  0  0  0
    0.6665   -8.6173   -0.0000 O   0  0  0  0  0  0  0  0  0  0  0  0
   -1.7496   -8.8910   -0.0000 C   0  0  0  0  0  0  0  0  0  0  0  0
    0.3571  -10.0812   -0.0000 C   0  0  0  0  0  0  0  0  0  0  0  0
   -1.1307  -10.2479   -0.0000 O   0  0  0  0  0  0  0  0  0  0  0  0
  1  2  2  0  0  0  0
  2  3  1  0  0  0  0
  2  4  1  0  0  0  0
  3  5  1  0  0  0  0
  4  6  2  0  0  0  0
  4  7  1  0  0  0  0
  6  8  1  0  0  0  0
  7  9  1  6  0  0  0
  8 10  2  0  0  0  0
  8 11  1  0  0  0  0
  9 12  1  0  0  0  0
 10 13  1  0  0  0  0
 11 14  2  0  0  0  0
 12 15  2  0  0  0  0
 12 16  1  0  0  0  0
 13 17  1  0  0  0  0
 13 18  2  0  0  0  0
 15 19  1  0  0  0  0
 16 20  2  0  0  0  0
 17 21  1  0  0  0  0
 18 22  1  0  0  0  0
 19 23  1  0  0  0  0
 19 24  2  0  0  0  0
 23 25  1  0  0  0  0
 24 26  1  0  0  0  0
  5  7  1  0  0  0  0
 14 18  1  0  0  0  0
 20 24  1  0  0  0  0
 21 22  1  0  0  0  0
 25 26  1  0  0  0  0
M  END
>  <MolRegNo>
387494

>  <m>
<

>  <Value>
25

>  <Unit>
%

>  <Type>
Inhibition

>  <Ligand Efficiency>


>  <Binding Efficiency>


>  <Surface Efficiency>


>  <Assay Index>
294023

>  <Assay Category>


>  <Assay Organism>
SARS coronavirus

>  <Target ID>
100499

>  <Target Name>
SARS coronavirus

>  <Target Organism>
SARS coronavirus

>  <Target Description>
Target is a complete organism

>  <Sequence Accession>


>  <Reference>
J. Med. Chem. 50 (17), 4087-4095 (2007)

>  <Pubmed ID>
17663539

>  <DOI>
10.1021/jm070295s

>  <InChI-Key>
CMJGAYUQSLJSCR-CQSZACIVSA-N

>  <Molecular Formula>
C20H16O6

>  <Monoisotopic Mass>
352.094690

>  <Druglikeness>
0.75401

$$$$
Compound 65
Actelion Java MolfileCreator 1.0

 26 30  0  0  0  0  0  0  0  0999 V2000
    0.0000   -0.0000   -0.0000 O   0  0  0  0  0  0  0  0  0  0  0  0
   -0.3095   -1.4640   -0.0000 C   0  0  0  0  0  0  0  0  0  0  0  0
    0.6903   -2.5590   -0.0000 O   0  0  0  0  0  0  0  0  0  0  0  0
   -1.6901   -2.0710   -0.0000 C   0  0  0  0  0  0  0  0  0  0  0  0
   -0.0595   -3.8563   -0.0000 C   0  0  0  0  0  0  0  0  0  0  0  0
   -3.0113   -1.3212   -0.0000 C   0  0  0  0  0  0  0  0  0  0  0  0
   -1.5473   -3.5469   -0.0000 C   0  0  0  0  0  0  0  0  0  0  0  0
   -4.3205   -2.0710   -0.0000 C   0  0  0  0  0  0  0  0  0  0  0  0
   -2.6661   -4.5467   -0.0000 C   0  0  0  0  0  0  0  0  0  0  0  0
   -5.6417   -1.3212   -0.0000 C   0  0  0  0  0  0  0  0  0  0  0  0
   -4.3324   -3.5707   -0.0000 C   0  0  0  0  0  0  0  0  0  0  0  0
   -2.3567   -5.9988   -0.0000 C   0  0  0  0  0  0  0  0  0  0  0  0
   -6.9390   -2.0591   -0.0000 C   0  0  0  0  0  0  0  0  0  0  0  0
   -5.6536   -4.3086   -0.0000 C   0  0  0  0  0  0  0  0  0  0  0  0
   -0.9403   -6.4391   -0.0000 C   0  0  0  0  0  0  0  0  0  0  0  0
   -3.4874   -6.9866   -0.0000 C   0  0  0  0  0  0  0  0  0  0  0  0
   -8.3792   -1.5830   -0.0000 O   0  0  0  0  0  0  0  0  0  0  0  0
   -6.9509   -3.5588   -0.0000 C   0  0  0  0  0  0  0  0  0  0  0  0
   -0.6308   -7.8912   -0.0000 C   0  0  0  0  0  0  0  0  0  0  0  0
   -3.1779   -8.4387   -0.0000 C   0  0  0  0  0  0  0  0  0  0  0  0
   -9.2838   -2.7851   -0.0000 C   0  0  0  0  0  0  0  0  0  0  0  0
   -8.4030   -4.0111   -0.0000 O   0  0  0  0  0  0  0  0  0  0  0  0
    0.6665   -8.6173   -0.0000 O   0  0  0  0  0  0  0  0  0  0  0  0
   -1.7496   -8.8910   -0.0000 C   0  0  0  0  0  0  0  0  0  0  0  0
    0.3571  -10.0812   -0.0000 C   0  0  0  0  0  0  0  0  0  0  0  0
   -1.1307  -10.2479   -0.0000 O   0  0  0  0  0  0  0  0  0  0  0  0
  1  2  2  0  0  0  0
  2  3  1  0  0  0  0
  2  4  1  0  0  0  0
  3  5  1  0  0  0  0
  4  6  2  0  0  0  0
  4  7  1  0  0  0  0
  6  8  1  0  0  0  0
  7  9  1  6  0  0  0
  8 10  2  0  0  0  0
  8 11  1  0  0  0  0
  9 12  1  0  0  0  0
 10 13  1  0  0  0  0
 11 14  2  0  0  0  0
 12 15  2  0  0  0  0
 12 16  1  0  0  0  0
 13 17  1  0  0  0  0
 13 18  2  0  0  0  0
 15 19  1  0  0  0  0
 16 20  2  0  0  0  0
 17 21  1  0  0  0  0
 18 22  1  0  0  0  0
 19 23  1  0  0  0  0
 19 24  2  0  0  0  0
 23 25  1  0  0  0  0
 24 26  1  0  0  0  0
  5  7  1  0  0  0  0
 14 18  1  0  0  0  0
 20 24  1  0  0  0  0
 21 22  1  0  0  0  0
 25 26  1  0  0  0  0
M  END
>  <MolRegNo>
387494

>  <m>


>  <Value>
0

>  <Unit>


>  <Type>
Inhibition

>  <Ligand Efficiency>


>  <Binding Efficiency>


>  <Surface Efficiency>


>  <Assay Index>
294025

>  <Assay Category>


>  <Assay Organism>
SARS coronavirus

>  <Target ID>
100499

>  <Target Name>
SARS coronavirus

>  <Target Organism>
SARS coronavirus

>  <Target Description>
Target is a complete organism

>  <Sequence Accession>


>  <Reference>
J. Med. Chem. 50 (17), 4087-4095 (2007)

>  <Pubmed ID>
17663539

>  <DOI>
10.1021/jm070295s

>  <InChI-Key>
CMJGAYUQSLJSCR-CQSZACIVSA-N

>  <Molecular Formula>
C20H16O6

>  <Monoisotopic Mass>
352.094690

>  <Druglikeness>
0.75401

$$$$
Compound 66
Actelion Java MolfileCreator 1.0

 26 30  0  0  0  0  0  0  0  0999 V2000
    0.0000   -0.0000   -0.0000 O   0  0  0  0  0  0  0  0  0  0  0  0
   -0.3095   -1.4640   -0.0000 C   0  0  0  0  0  0  0  0  0  0  0  0
    0.6903   -2.5590   -0.0000 O   0  0  0  0  0  0  0  0  0  0  0  0
   -1.6901   -2.0710   -0.0000 C   0  0  0  0  0  0  0  0  0  0  0  0
   -0.0595   -3.8563   -0.0000 C   0  0  0  0  0  0  0  0  0  0  0  0
   -3.0113   -1.3212   -0.0000 C   0  0  0  0  0  0  0  0  0  0  0  0
   -1.5473   -3.5469   -0.0000 C   0  0  0  0  0  0  0  0  0  0  0  0
   -4.3205   -2.0710   -0.0000 C   0  0  0  0  0  0  0  0  0  0  0  0
   -2.6661   -4.5467   -0.0000 C   0  0  0  0  0  0  0  0  0  0  0  0
   -5.6417   -1.3212   -0.0000 C   0  0  0  0  0  0  0  0  0  0  0  0
   -4.3324   -3.5707   -0.0000 C   0  0  0  0  0  0  0  0  0  0  0  0
   -2.3567   -5.9988   -0.0000 C   0  0  0  0  0  0  0  0  0  0  0  0
   -6.9390   -2.0591   -0.0000 C   0  0  0  0  0  0  0  0  0  0  0  0
   -5.6536   -4.3086   -0.0000 C   0  0  0  0  0  0  0  0  0  0  0  0
   -0.9403   -6.4391   -0.0000 C   0  0  0  0  0  0  0  0  0  0  0  0
   -3.4874   -6.9866   -0.0000 C   0  0  0  0  0  0  0  0  0  0  0  0
   -8.3792   -1.5830   -0.0000 O   0  0  0  0  0  0  0  0  0  0  0  0
   -6.9509   -3.5588   -0.0000 C   0  0  0  0  0  0  0  0  0  0  0  0
   -0.6308   -7.8912   -0.0000 C   0  0  0  0  0  0  0  0  0  0  0  0
   -3.1779   -8.4387   -0.0000 C   0  0  0  0  0  0  0  0  0  0  0  0
   -9.2838   -2.7851   -0.0000 C   0  0  0  0  0  0  0  0  0  0  0  0
   -8.4030   -4.0111   -0.0000 O   0  0  0  0  0  0  0  0  0  0  0  0
    0.6665   -8.6173   -0.0000 O   0  0  0  0  0  0  0  0  0  0  0  0
   -1.7496   -8.8910   -0.0000 C   0  0  0  0  0  0  0  0  0  0  0  0
    0.3571  -10.0812   -0.0000 C   0  0  0  0  0  0  0  0  0  0  0  0
   -1.1307  -10.2479   -0.0000 O   0  0  0  0  0  0  0  0  0  0  0  0
  1  2  2  0  0  0  0
  2  3  1  0  0  0  0
  2  4  1  0  0  0  0
  3  5  1  0  0  0  0
  4  6  2  0  0  0  0
  4  7  1  0  0  0  0
  6  8  1  0  0  0  0
  7  9  1  6  0  0  0
  8 10  2  0  0  0  0
  8 11  1  0  0  0  0
  9 12  1  0  0  0  0
 10 13  1  0  0  0  0
 11 14  2  0  0  0  0
 12 15  2  0  0  0  0
 12 16  1  0  0  0  0
 13 17  1  0  0  0  0
 13 18  2  0  0  0  0
 15 19  1  0  0  0  0
 16 20  2  0  0  0  0
 17 21  1  0  0  0  0
 18 22  1  0  0  0  0
 19 23  1  0  0  0  0
 19 24  2  0  0  0  0
 23 25  1  0  0  0  0
 24 26  1  0  0  0  0
  5  7  1  0  0  0  0
 14 18  1  0  0  0  0
 20 24  1  0  0  0  0
 21 22  1  0  0  0  0
 25 26  1  0  0  0  0
M  END
>  <MolRegNo>
387494

>  <m>


>  <Value>
0

>  <Unit>


>  <Type>
Inhibition

>  <Ligand Efficiency>


>  <Binding Efficiency>


>  <Surface Efficiency>


>  <Assay Index>
294024

>  <Assay Category>


>  <Assay Organism>
SARS coronavirus

>  <Target ID>
100499

>  <Target Name>
SARS coronavirus

>  <Target Organism>
SARS coronavirus

>  <Target Description>
Target is a complete organism

>  <Sequence Accession>


>  <Reference>
J. Med. Chem. 50 (17), 4087-4095 (2007)

>  <Pubmed ID>
17663539

>  <DOI>
10.1021/jm070295s

>  <InChI-Key>
CMJGAYUQSLJSCR-CQSZACIVSA-N

>  <Molecular Formula>
C20H16O6

>  <Monoisotopic Mass>
352.094690

>  <Druglikeness>
0.75401

$$$$
Compound 67
Actelion Java MolfileCreator 1.0

  7  7  0  0  0  0  0  0  0  0999 V2000
    0.0000   -0.0000   -0.0000 S   0  0  0  0  0  0  0  0  0  0  0  0
    1.2474    0.8277   -0.0000 C   0  0  0  0  0  0  0  0  0  0  0  0
   -1.1775    0.9443   -0.0000 C   0  0  0  0  0  0  0  0  0  0  0  0
    0.8394    2.2967   -0.0000 C   0  0  0  0  0  0  0  0  0  0  0  0
    2.6348    0.3031   -0.0000 C   0  0  0  0  0  0  0  0  0  0  0  0
   -0.6529    2.3550   -0.0000 C   0  0  0  0  0  0  0  0  0  0  0  0
    2.8679   -1.1658   -0.0000 O   0  0  0  0  0  0  0  0  0  0  0  0
  1  2  1  0  0  0  0
  1  3  1  0  0  0  0
  2  4  2  0  0  0  0
  2  5  1  0  0  0  0
  3  6  2  0  0  0  0
  5  7  2  0  0  0  0
  4  6  1  0  0  0  0
M  END
>  <MolRegNo>
146417

>  <m>
<

>  <Value>
10

>  <Unit>
%

>  <Type>
Inhibition

>  <Ligand Efficiency>


>  <Binding Efficiency>


>  <Surface Efficiency>


>  <Assay Index>
278390

>  <Assay Category>


>  <Assay Organism>
SARS coronavirus

>  <Target ID>
20012

>  <Target Name>
SARS coronavirus 3C-like proteinase

>  <Target Organism>
SARS coronavirus

>  <Target Description>
Target is a single protein chain

>  <Sequence Accession>
P0C6U8

>  <Reference>
J. Med. Chem. 50 (8), 1850-1864 (2007)

>  <Pubmed ID>
17381079

>  <DOI>
10.1021/jm061425k

>  <InChI-Key>
CNUDBTRUORMMPA-UHFFFAOYSA-N

>  <Molecular Formula>
C5H4OS

>  <Monoisotopic Mass>
111.998285

>  <Druglikeness>
-0.8275

$$$$
Compound 68
Actelion Java MolfileCreator 1.0

 15 16  0  0  0  0  0  0  0  0999 V2000
    0.0000   -0.0000   -0.0000 Cl  0  0  0  0  0  0  0  0  0  0  0  0
   -1.3040   -0.7350   -0.0000 C   0  0  0  0  0  0  0  0  0  0  0  0
   -1.3159   -2.2287   -0.0000 C   0  0  0  0  0  0  0  0  0  0  0  0
   -2.6080    0.0237   -0.0000 C   0  0  0  0  0  0  0  0  0  0  0  0
   -2.6317   -2.9636   -0.0000 N   0  0  0  0  0  0  0  0  0  0  0  0
   -3.9120   -0.7113   -0.0000 C   0  0  0  0  0  0  0  0  0  0  0  0
   -3.9357   -2.2050   -0.0000 C   0  0  0  0  0  0  0  0  0  0  0  0
   -5.2160    0.0474   -0.0000 O   0  0  0  0  0  0  0  0  0  0  0  0
   -6.5200   -0.6876   -0.0000 C   0  0  0  0  0  0  0  0  0  0  0  0
   -6.5319   -2.1694   -0.0000 O   0  0  0  0  0  0  0  0  0  0  0  0
   -7.8240    0.0711   -0.0000 C   0  0  0  0  0  0  0  0  0  0  0  0
   -9.1992   -0.5216   -0.0000 N   0  0  0  0  0  0  0  0  0  0  0  0
   -7.9900    1.5648   -0.0000 C   0  0  0  0  0  0  0  0  0  0  0  0
  -10.2068    0.6046   -0.0000 C   0  0  0  0  0  0  0  0  0  0  0  0
   -9.4600    1.8849   -0.0000 S   0  0  0  0  0  0  0  0  0  0  0  0
  1  2  1  0  0  0  0
  2  3  2  0  0  0  0
  2  4  1  0  0  0  0
  3  5  1  0  0  0  0
  4  6  2  0  0  0  0
  5  7  2  0  0  0  0
  6  8  1  0  0  0  0
  8  9  1  0  0  0  0
  9 10  2  0  0  0  0
  9 11  1  0  0  0  0
 11 12  1  0  0  0  0
 11 13  2  0  0  0  0
 12 14  2  0  0  0  0
 13 15  1  0  0  0  0
  6  7  1  0  0  0  0
 14 15  1  0  0  0  0
M  END
>  <MolRegNo>
371904

>  <m>
=

>  <Value>
270

>  <Unit>
nM

>  <Type>
IC50

>  <Ligand Efficiency>
0.60

>  <Binding Efficiency>
27.29

>  <Surface Efficiency>
12.61

>  <Assay Index>
278391

>  <Assay Category>


>  <Assay Organism>
SARS coronavirus

>  <Target ID>
20012

>  <Target Name>
SARS coronavirus 3C-like proteinase

>  <Target Organism>
SARS coronavirus

>  <Target Description>
Target is a single protein chain

>  <Sequence Accession>
P0C6U8

>  <Reference>
J. Med. Chem. 50 (8), 1850-1864 (2007)

>  <Pubmed ID>
17381079

>  <DOI>
10.1021/jm061425k

>  <InChI-Key>
CSEAAOWXHPFATP-UHFFFAOYSA-N

>  <Molecular Formula>
C9H5N2O2ClS

>  <Monoisotopic Mass>
239.976025

>  <Druglikeness>
1.0081

$$$$
Compound 69
Actelion Java MolfileCreator 1.0

 15 16  0  0  0  0  0  0  0  0999 V2000
    0.0000   -0.0000   -0.0000 Cl  0  0  0  0  0  0  0  0  0  0  0  0
   -1.3040   -0.7350   -0.0000 C   0  0  0  0  0  0  0  0  0  0  0  0
   -1.3159   -2.2287   -0.0000 C   0  0  0  0  0  0  0  0  0  0  0  0
   -2.6080    0.0237   -0.0000 C   0  0  0  0  0  0  0  0  0  0  0  0
   -2.6317   -2.9636   -0.0000 N   0  0  0  0  0  0  0  0  0  0  0  0
   -3.9120   -0.7113   -0.0000 C   0  0  0  0  0  0  0  0  0  0  0  0
   -3.9357   -2.2050   -0.0000 C   0  0  0  0  0  0  0  0  0  0  0  0
   -5.2160    0.0474   -0.0000 O   0  0  0  0  0  0  0  0  0  0  0  0
   -6.5200   -0.6876   -0.0000 C   0  0  0  0  0  0  0  0  0  0  0  0
   -6.5319   -2.1694   -0.0000 O   0  0  0  0  0  0  0  0  0  0  0  0
   -7.8240    0.0711   -0.0000 C   0  0  0  0  0  0  0  0  0  0  0  0
   -9.1992   -0.5216   -0.0000 N   0  0  0  0  0  0  0  0  0  0  0  0
   -7.9900    1.5648   -0.0000 C   0  0  0  0  0  0  0  0  0  0  0  0
  -10.2068    0.6046   -0.0000 C   0  0  0  0  0  0  0  0  0  0  0  0
   -9.4600    1.8849   -0.0000 S   0  0  0  0  0  0  0  0  0  0  0  0
  1  2  1  0  0  0  0
  2  3  2  0  0  0  0
  2  4  1  0  0  0  0
  3  5  1  0  0  0  0
  4  6  2  0  0  0  0
  5  7  2  0  0  0  0
  6  8  1  0  0  0  0
  8  9  1  0  0  0  0
  9 10  2  0  0  0  0
  9 11  1  0  0  0  0
 11 12  1  0  0  0  0
 11 13  2  0  0  0  0
 12 14  2  0  0  0  0
 13 15  1  0  0  0  0
  6  7  1  0  0  0  0
 14 15  1  0  0  0  0
M  END
>  <MolRegNo>
371904

>  <m>
=

>  <Value>
98

>  <Unit>
%

>  <Type>
Inhibition

>  <Ligand Efficiency>


>  <Binding Efficiency>


>  <Surface Efficiency>


>  <Assay Index>
278392

>  <Assay Category>


>  <Assay Organism>
SARS coronavirus

>  <Target ID>
20012

>  <Target Name>
SARS coronavirus 3C-like proteinase

>  <Target Organism>
SARS coronavirus

>  <Target Description>
Target is a single protein chain

>  <Sequence Accession>
P0C6U8

>  <Reference>
J. Med. Chem. 50 (8), 1850-1864 (2007)

>  <Pubmed ID>
17381079

>  <DOI>
10.1021/jm061425k

>  <InChI-Key>
CSEAAOWXHPFATP-UHFFFAOYSA-N

>  <Molecular Formula>
C9H5N2O2ClS

>  <Monoisotopic Mass>
239.976025

>  <Druglikeness>
1.0081

$$$$
Compound 70
Actelion Java MolfileCreator 1.0

 40 41  0  0  0  0  0  0  0  0999 V2000
    0.0000   -0.0000   -0.0000 O   0  0  0  0  0  0  0  0  0  0  0  0
    0.8248    1.2489   -0.0000 C   0  0  0  0  0  0  0  0  0  0  0  0
    2.3093    1.3078   -0.0000 N   0  0  0  0  0  0  0  0  0  0  0  0
    0.3063    2.6628   -0.0000 C   0  0  0  0  0  0  0  0  0  0  0  0
    2.7100    2.7571   -0.0000 C   0  0  0  0  0  0  0  0  0  0  0  0
    1.4728    3.5936   -0.0000 C   0  0  0  0  0  0  0  0  0  0  0  0
   -1.1429    3.0870   -0.0000 C   0  0  0  0  0  0  0  0  0  0  0  0
   -1.5199    4.5480   -0.0000 C   0  0  0  0  0  0  0  0  0  0  0  0
   -2.9692    4.9722   -0.0000 N   0  0  0  0  0  0  0  0  0  0  0  0
   -0.4477    5.5966   -0.0000 C   0  0  0  0  0  0  0  0  0  0  0  0
   -4.0649    3.9471   -0.0000 C   0  0  0  0  0  0  0  0  0  0  0  0
    0.9779    5.1960   -0.0000 C   0  0  0  0  0  0  0  0  0  0  0  0
   -3.7115    2.5096   -0.0000 O   0  0  0  0  0  0  0  0  0  0  0  0
   -5.5142    4.3713   -0.0000 C   0  0  0  0  0  0  0  0  0  0  0  0
    2.0501    6.2447   -0.0000 C   0  0  0  0  0  0  0  0  0  0  0  0
   -6.6099    3.3462   -0.0000 C   0  0  0  0  0  0  0  0  0  0  0  0
   -5.8912    5.8323   -0.0000 C   0  0  0  0  0  0  0  0  0  0  0  0
    3.4758    5.8441   -0.0000 O   0  0  0  0  0  0  0  0  0  0  0  0
    1.6731    7.7057   -0.0000 O   0  0  0  0  0  0  0  0  0  0  0  0
   -8.0592    3.7704   -0.0000 C   0  0  0  0  0  0  0  0  0  0  0  0
   -4.8190    6.8809   -0.0000 C   0  0  0  0  0  0  0  0  0  0  0  0
    2.7453    8.7543   -0.0000 C   0  0  0  0  0  0  0  0  0  0  0  0
   -8.4362    5.2314   -0.0000 O   0  0  0  0  0  0  0  0  0  0  0  0
   -9.1549    2.7453   -0.0000 C   0  0  0  0  0  0  0  0  0  0  0  0
   -5.1960    8.3419   -0.0000 C   0  0  0  0  0  0  0  0  0  0  0  0
    2.3683   10.2153   -0.0000 C   0  0  0  0  0  0  0  0  0  0  0  0
  -10.6042    3.1695   -0.0000 N   0  0  0  0  0  0  0  0  0  0  0  0
   -8.8014    1.3078   -0.0000 C   0  0  0  0  0  0  0  0  0  0  0  0
   -6.6453    8.7661   -0.0000 C   0  0  0  0  0  0  0  0  0  0  0  0
   -4.1238    9.3906   -0.0000 C   0  0  0  0  0  0  0  0  0  0  0  0
  -11.6999    2.1444   -0.0000 C   0  0  0  0  0  0  0  0  0  0  0  0
   -7.3758    0.9072   -0.0000 C   0  0  0  0  0  0  0  0  0  0  0  0
   -9.8972    0.2828   -0.0000 C   0  0  0  0  0  0  0  0  0  0  0  0
  -11.3464    0.7069   -0.0000 O   0  0  0  0  0  0  0  0  0  0  0  0
  -13.1491    2.5686   -0.0000 C   0  0  0  0  0  0  0  0  0  0  0  0
  -13.6676    3.9824   -0.0000 N   0  0  0  0  0  0  0  0  0  0  0  0
  -14.3392    1.6613   -0.0000 C   0  0  0  0  0  0  0  0  0  0  0  0
  -15.1757    3.9471   -0.0000 O   0  0  0  0  0  0  0  0  0  0  0  0
  -15.5881    2.5096   -0.0000 C   0  0  0  0  0  0  0  0  0  0  0  0
  -17.0020    2.0148   -0.0000 C   0  0  0  0  0  0  0  0  0  0  0  0
  1  2  2  0  0  0  0
  2  3  1  0  0  0  0
  2  4  1  0  0  0  0
  3  5  1  0  0  0  0
  4  6  1  0  0  0  0
  4  7  1  1  0  0  0
  7  8  1  0  0  0  0
  8  9  1  1  0  0  0
  8 10  1  0  0  0  0
  9 11  1  0  0  0  0
 10 12  2  0  0  0  0
 11 13  2  0  0  0  0
 11 14  1  0  0  0  0
 12 15  1  0  0  0  0
 14 16  1  6  0  0  0
 14 17  1  0  0  0  0
 15 18  2  0  0  0  0
 15 19  1  0  0  0  0
 16 20  1  0  0  0  0
 17 21  1  0  0  0  0
 19 22  1  0  0  0  0
 20 23  2  0  0  0  0
 20 24  1  0  0  0  0
 21 25  2  0  0  0  0
 22 26  1  0  0  0  0
 24 27  1  1  0  0  0
 24 28  1  0  0  0  0
 25 29  1  0  0  0  0
 25 30  1  0  0  0  0
 27 31  1  0  0  0  0
 28 32  1  0  0  0  0
 28 33  1  0  0  0  0
 31 34  2  0  0  0  0
 31 35  1  0  0  0  0
 35 36  2  0  0  0  0
 35 37  1  0  0  0  0
 36 38  1  0  0  0  0
 37 39  2  0  0  0  0
 39 40  1  0  0  0  0
  5  6  1  0  0  0  0
 38 39  1  0  0  0  0
M  END
>  <MolRegNo>
329386

>  <m>
=

>  <Value>
70000

>  <Unit>
nM

>  <Type>
IC50

>  <Ligand Efficiency>
0.14

>  <Binding Efficiency>
7.44

>  <Surface Efficiency>
2.65

>  <Assay Index>
251881

>  <Assay Category>


>  <Assay Organism>
Carona virus

>  <Target ID>
20012

>  <Target Name>
SARS coronavirus 3C-like proteinase

>  <Target Organism>
SARS coronavirus

>  <Target Description>
Target is a single protein chain

>  <Sequence Accession>
P0C6U8

>  <Reference>
J. Med. Chem. 48 (22), 6767-6771 (2005)

>  <Pubmed ID>
16250632

>  <DOI>
10.1021/jm050548m

>  <InChI-Key>
CSNQHKJCKPMZCY-IMIIHFCZSA-N

>  <Molecular Formula>
C29H42N4O7

>  <Monoisotopic Mass>
558.305351

>  <Druglikeness>
-2.5974

$$$$
Compound 71
Actelion Java MolfileCreator 1.0

 40 41  0  0  0  0  0  0  0  0999 V2000
    0.0000   -0.0000   -0.0000 O   0  0  0  0  0  0  0  0  0  0  0  0
    0.8248    1.2489   -0.0000 C   0  0  0  0  0  0  0  0  0  0  0  0
    2.3093    1.3078   -0.0000 N   0  0  0  0  0  0  0  0  0  0  0  0
    0.3063    2.6628   -0.0000 C   0  0  0  0  0  0  0  0  0  0  0  0
    2.7100    2.7571   -0.0000 C   0  0  0  0  0  0  0  0  0  0  0  0
    1.4728    3.5936   -0.0000 C   0  0  0  0  0  0  0  0  0  0  0  0
   -1.1429    3.0870   -0.0000 C   0  0  0  0  0  0  0  0  0  0  0  0
   -1.5199    4.5480   -0.0000 C   0  0  0  0  0  0  0  0  0  0  0  0
   -2.9692    4.9722   -0.0000 N   0  0  0  0  0  0  0  0  0  0  0  0
   -0.4477    5.5966   -0.0000 C   0  0  0  0  0  0  0  0  0  0  0  0
   -4.0649    3.9471   -0.0000 C   0  0  0  0  0  0  0  0  0  0  0  0
    0.9779    5.1960   -0.0000 C   0  0  0  0  0  0  0  0  0  0  0  0
   -3.7115    2.5096   -0.0000 O   0  0  0  0  0  0  0  0  0  0  0  0
   -5.5142    4.3713   -0.0000 C   0  0  0  0  0  0  0  0  0  0  0  0
    2.0501    6.2447   -0.0000 C   0  0  0  0  0  0  0  0  0  0  0  0
   -6.6099    3.3462   -0.0000 C   0  0  0  0  0  0  0  0  0  0  0  0
   -5.8912    5.8323   -0.0000 C   0  0  0  0  0  0  0  0  0  0  0  0
    3.4758    5.8441   -0.0000 O   0  0  0  0  0  0  0  0  0  0  0  0
    1.6731    7.7057   -0.0000 O   0  0  0  0  0  0  0  0  0  0  0  0
   -8.0592    3.7704   -0.0000 C   0  0  0  0  0  0  0  0  0  0  0  0
   -4.8190    6.8809   -0.0000 C   0  0  0  0  0  0  0  0  0  0  0  0
    2.7453    8.7543   -0.0000 C   0  0  0  0  0  0  0  0  0  0  0  0
   -8.4362    5.2314   -0.0000 O   0  0  0  0  0  0  0  0  0  0  0  0
   -9.1549    2.7453   -0.0000 C   0  0  0  0  0  0  0  0  0  0  0  0
   -5.1960    8.3419   -0.0000 C   0  0  0  0  0  0  0  0  0  0  0  0
    2.3683   10.2153   -0.0000 C   0  0  0  0  0  0  0  0  0  0  0  0
  -10.6042    3.1695   -0.0000 N   0  0  0  0  0  0  0  0  0  0  0  0
   -8.8014    1.3078   -0.0000 C   0  0  0  0  0  0  0  0  0  0  0  0
   -6.6453    8.7661   -0.0000 C   0  0  0  0  0  0  0  0  0  0  0  0
   -4.1238    9.3906   -0.0000 C   0  0  0  0  0  0  0  0  0  0  0  0
  -11.6999    2.1444   -0.0000 C   0  0  0  0  0  0  0  0  0  0  0  0
   -7.3758    0.9072   -0.0000 C   0  0  0  0  0  0  0  0  0  0  0  0
   -9.8972    0.2828   -0.0000 C   0  0  0  0  0  0  0  0  0  0  0  0
  -11.3464    0.7069   -0.0000 O   0  0  0  0  0  0  0  0  0  0  0  0
  -13.1491    2.5686   -0.0000 C   0  0  0  0  0  0  0  0  0  0  0  0
  -13.6676    3.9824   -0.0000 N   0  0  0  0  0  0  0  0  0  0  0  0
  -14.3392    1.6613   -0.0000 C   0  0  0  0  0  0  0  0  0  0  0  0
  -15.1757    3.9471   -0.0000 O   0  0  0  0  0  0  0  0  0  0  0  0
  -15.5881    2.5096   -0.0000 C   0  0  0  0  0  0  0  0  0  0  0  0
  -17.0020    2.0148   -0.0000 C   0  0  0  0  0  0  0  0  0  0  0  0
  1  2  2  0  0  0  0
  2  3  1  0  0  0  0
  2  4  1  0  0  0  0
  3  5  1  0  0  0  0
  4  6  1  0  0  0  0
  4  7  1  1  0  0  0
  7  8  1  0  0  0  0
  8  9  1  1  0  0  0
  8 10  1  0  0  0  0
  9 11  1  0  0  0  0
 10 12  2  0  0  0  0
 11 13  2  0  0  0  0
 11 14  1  0  0  0  0
 12 15  1  0  0  0  0
 14 16  1  6  0  0  0
 14 17  1  0  0  0  0
 15 18  2  0  0  0  0
 15 19  1  0  0  0  0
 16 20  1  0  0  0  0
 17 21  1  0  0  0  0
 19 22  1  0  0  0  0
 20 23  2  0  0  0  0
 20 24  1  0  0  0  0
 21 25  2  0  0  0  0
 22 26  1  0  0  0  0
 24 27  1  1  0  0  0
 24 28  1  0  0  0  0
 25 29  1  0  0  0  0
 25 30  1  0  0  0  0
 27 31  1  0  0  0  0
 28 32  1  0  0  0  0
 28 33  1  0  0  0  0
 31 34  2  0  0  0  0
 31 35  1  0  0  0  0
 35 36  2  0  0  0  0
 35 37  1  0  0  0  0
 36 38  1  0  0  0  0
 37 39  2  0  0  0  0
 39 40  1  0  0  0  0
  5  6  1  0  0  0  0
 38 39  1  0  0  0  0
M  END
>  <MolRegNo>
329386

>  <m>
=

>  <Value>
70000

>  <Unit>
nM

>  <Type>
IC50

>  <Ligand Efficiency>


>  <Binding Efficiency>


>  <Surface Efficiency>


>  <Assay Index>
298649

>  <Assay Category>


>  <Assay Organism>
SARS coronavirus

>  <Target ID>
100499

>  <Target Name>
SARS coronavirus

>  <Target Organism>
SARS coronavirus

>  <Target Description>
Target is a complete organism

>  <Sequence Accession>


>  <Reference>
Bioorg. Med. Chem. Lett. 17 (21), 5876-5880 (2007)

>  <Pubmed ID>
17855091

>  <DOI>
10.1016/j.bmcl.2007.08.031

>  <InChI-Key>
CSNQHKJCKPMZCY-IMIIHFCZSA-N

>  <Molecular Formula>
C29H42N4O7

>  <Monoisotopic Mass>
558.305351

>  <Druglikeness>
-2.5974

$$$$
Compound 72
Actelion Java MolfileCreator 1.0

 40 41  0  0  0  0  0  0  0  0999 V2000
    0.0000   -0.0000   -0.0000 O   0  0  0  0  0  0  0  0  0  0  0  0
    0.8248    1.2489   -0.0000 C   0  0  0  0  0  0  0  0  0  0  0  0
    2.3093    1.3078   -0.0000 N   0  0  0  0  0  0  0  0  0  0  0  0
    0.3063    2.6628   -0.0000 C   0  0  0  0  0  0  0  0  0  0  0  0
    2.7100    2.7571   -0.0000 C   0  0  0  0  0  0  0  0  0  0  0  0
    1.4728    3.5936   -0.0000 C   0  0  0  0  0  0  0  0  0  0  0  0
   -1.1429    3.0870   -0.0000 C   0  0  0  0  0  0  0  0  0  0  0  0
   -1.5199    4.5480   -0.0000 C   0  0  0  0  0  0  0  0  0  0  0  0
   -2.9692    4.9722   -0.0000 N   0  0  0  0  0  0  0  0  0  0  0  0
   -0.4477    5.5966   -0.0000 C   0  0  0  0  0  0  0  0  0  0  0  0
   -4.0649    3.9471   -0.0000 C   0  0  0  0  0  0  0  0  0  0  0  0
    0.9779    5.1960   -0.0000 C   0  0  0  0  0  0  0  0  0  0  0  0
   -3.7115    2.5096   -0.0000 O   0  0  0  0  0  0  0  0  0  0  0  0
   -5.5142    4.3713   -0.0000 C   0  0  0  0  0  0  0  0  0  0  0  0
    2.0501    6.2447   -0.0000 C   0  0  0  0  0  0  0  0  0  0  0  0
   -6.6099    3.3462   -0.0000 C   0  0  0  0  0  0  0  0  0  0  0  0
   -5.8912    5.8323   -0.0000 C   0  0  0  0  0  0  0  0  0  0  0  0
    3.4758    5.8441   -0.0000 O   0  0  0  0  0  0  0  0  0  0  0  0
    1.6731    7.7057   -0.0000 O   0  0  0  0  0  0  0  0  0  0  0  0
   -8.0592    3.7704   -0.0000 C   0  0  0  0  0  0  0  0  0  0  0  0
   -4.8190    6.8809   -0.0000 C   0  0  0  0  0  0  0  0  0  0  0  0
    2.7453    8.7543   -0.0000 C   0  0  0  0  0  0  0  0  0  0  0  0
   -8.4362    5.2314   -0.0000 O   0  0  0  0  0  0  0  0  0  0  0  0
   -9.1549    2.7453   -0.0000 C   0  0  0  0  0  0  0  0  0  0  0  0
   -5.1960    8.3419   -0.0000 C   0  0  0  0  0  0  0  0  0  0  0  0
    2.3683   10.2153   -0.0000 C   0  0  0  0  0  0  0  0  0  0  0  0
  -10.6042    3.1695   -0.0000 N   0  0  0  0  0  0  0  0  0  0  0  0
   -8.8014    1.3078   -0.0000 C   0  0  0  0  0  0  0  0  0  0  0  0
   -6.6453    8.7661   -0.0000 C   0  0  0  0  0  0  0  0  0  0  0  0
   -4.1238    9.3906   -0.0000 C   0  0  0  0  0  0  0  0  0  0  0  0
  -11.6999    2.1444   -0.0000 C   0  0  0  0  0  0  0  0  0  0  0  0
   -7.3758    0.9072   -0.0000 C   0  0  0  0  0  0  0  0  0  0  0  0
   -9.8972    0.2828   -0.0000 C   0  0  0  0  0  0  0  0  0  0  0  0
  -11.3464    0.7069   -0.0000 O   0  0  0  0  0  0  0  0  0  0  0  0
  -13.1491    2.5686   -0.0000 C   0  0  0  0  0  0  0  0  0  0  0  0
  -13.6676    3.9824   -0.0000 N   0  0  0  0  0  0  0  0  0  0  0  0
  -14.3392    1.6613   -0.0000 C   0  0  0  0  0  0  0  0  0  0  0  0
  -15.1757    3.9471   -0.0000 O   0  0  0  0  0  0  0  0  0  0  0  0
  -15.5881    2.5096   -0.0000 C   0  0  0  0  0  0  0  0  0  0  0  0
  -17.0020    2.0148   -0.0000 C   0  0  0  0  0  0  0  0  0  0  0  0
  1  2  2  0  0  0  0
  2  3  1  0  0  0  0
  2  4  1  0  0  0  0
  3  5  1  0  0  0  0
  4  6  1  0  0  0  0
  4  7  1  1  0  0  0
  7  8  1  0  0  0  0
  8  9  1  1  0  0  0
  8 10  1  0  0  0  0
  9 11  1  0  0  0  0
 10 12  2  0  0  0  0
 11 13  2  0  0  0  0
 11 14  1  0  0  0  0
 12 15  1  0  0  0  0
 14 16  1  6  0  0  0
 14 17  1  0  0  0  0
 15 18  2  0  0  0  0
 15 19  1  0  0  0  0
 16 20  1  0  0  0  0
 17 21  1  0  0  0  0
 19 22  1  0  0  0  0
 20 23  2  0  0  0  0
 20 24  1  0  0  0  0
 21 25  2  0  0  0  0
 22 26  1  0  0  0  0
 24 27  1  1  0  0  0
 24 28  1  0  0  0  0
 25 29  1  0  0  0  0
 25 30  1  0  0  0  0
 27 31  1  0  0  0  0
 28 32  1  0  0  0  0
 28 33  1  0  0  0  0
 31 34  2  0  0  0  0
 31 35  1  0  0  0  0
 35 36  2  0  0  0  0
 35 37  1  0  0  0  0
 36 38  1  0  0  0  0
 37 39  2  0  0  0  0
 39 40  1  0  0  0  0
  5  6  1  0  0  0  0
 38 39  1  0  0  0  0
M  END
>  <MolRegNo>
329386

>  <m>
=

>  <Value>
0.25

>  <Unit>
hr

>  <Type>
T1/2

>  <Ligand Efficiency>


>  <Binding Efficiency>


>  <Surface Efficiency>


>  <Assay Index>
250668

>  <Assay Category>


>  <Assay Organism>
Carona virus

>  <Target ID>
20012

>  <Target Name>
SARS coronavirus 3C-like proteinase

>  <Target Organism>
SARS coronavirus

>  <Target Description>
Target is a single protein chain

>  <Sequence Accession>
P0C6U8

>  <Reference>
J. Med. Chem. 48 (22), 6767-6771 (2005)

>  <Pubmed ID>
16250632

>  <DOI>
10.1021/jm050548m

>  <InChI-Key>
CSNQHKJCKPMZCY-IMIIHFCZSA-N

>  <Molecular Formula>
C29H42N4O7

>  <Monoisotopic Mass>
558.305351

>  <Druglikeness>
-2.5974

$$$$
Compound 73
Actelion Java MolfileCreator 1.0

 40 41  0  0  0  0  0  0  0  0999 V2000
    0.0000   -0.0000   -0.0000 O   0  0  0  0  0  0  0  0  0  0  0  0
    0.8248    1.2489   -0.0000 C   0  0  0  0  0  0  0  0  0  0  0  0
    2.3093    1.3078   -0.0000 N   0  0  0  0  0  0  0  0  0  0  0  0
    0.3063    2.6628   -0.0000 C   0  0  0  0  0  0  0  0  0  0  0  0
    2.7100    2.7571   -0.0000 C   0  0  0  0  0  0  0  0  0  0  0  0
    1.4728    3.5936   -0.0000 C   0  0  0  0  0  0  0  0  0  0  0  0
   -1.1429    3.0870   -0.0000 C   0  0  0  0  0  0  0  0  0  0  0  0
   -1.5199    4.5480   -0.0000 C   0  0  0  0  0  0  0  0  0  0  0  0
   -2.9692    4.9722   -0.0000 N   0  0  0  0  0  0  0  0  0  0  0  0
   -0.4477    5.5966   -0.0000 C   0  0  0  0  0  0  0  0  0  0  0  0
   -4.0649    3.9471   -0.0000 C   0  0  0  0  0  0  0  0  0  0  0  0
    0.9779    5.1960   -0.0000 C   0  0  0  0  0  0  0  0  0  0  0  0
   -3.7115    2.5096   -0.0000 O   0  0  0  0  0  0  0  0  0  0  0  0
   -5.5142    4.3713   -0.0000 C   0  0  0  0  0  0  0  0  0  0  0  0
    2.0501    6.2447   -0.0000 C   0  0  0  0  0  0  0  0  0  0  0  0
   -6.6099    3.3462   -0.0000 C   0  0  0  0  0  0  0  0  0  0  0  0
   -5.8912    5.8323   -0.0000 C   0  0  0  0  0  0  0  0  0  0  0  0
    3.4758    5.8441   -0.0000 O   0  0  0  0  0  0  0  0  0  0  0  0
    1.6731    7.7057   -0.0000 O   0  0  0  0  0  0  0  0  0  0  0  0
   -8.0592    3.7704   -0.0000 C   0  0  0  0  0  0  0  0  0  0  0  0
   -4.8190    6.8809   -0.0000 C   0  0  0  0  0  0  0  0  0  0  0  0
    2.7453    8.7543   -0.0000 C   0  0  0  0  0  0  0  0  0  0  0  0
   -8.4362    5.2314   -0.0000 O   0  0  0  0  0  0  0  0  0  0  0  0
   -9.1549    2.7453   -0.0000 C   0  0  0  0  0  0  0  0  0  0  0  0
   -5.1960    8.3419   -0.0000 C   0  0  0  0  0  0  0  0  0  0  0  0
    2.3683   10.2153   -0.0000 C   0  0  0  0  0  0  0  0  0  0  0  0
  -10.6042    3.1695   -0.0000 N   0  0  0  0  0  0  0  0  0  0  0  0
   -8.8014    1.3078   -0.0000 C   0  0  0  0  0  0  0  0  0  0  0  0
   -6.6453    8.7661   -0.0000 C   0  0  0  0  0  0  0  0  0  0  0  0
   -4.1238    9.3906   -0.0000 C   0  0  0  0  0  0  0  0  0  0  0  0
  -11.6999    2.1444   -0.0000 C   0  0  0  0  0  0  0  0  0  0  0  0
   -7.3758    0.9072   -0.0000 C   0  0  0  0  0  0  0  0  0  0  0  0
   -9.8972    0.2828   -0.0000 C   0  0  0  0  0  0  0  0  0  0  0  0
  -11.3464    0.7069   -0.0000 O   0  0  0  0  0  0  0  0  0  0  0  0
  -13.1491    2.5686   -0.0000 C   0  0  0  0  0  0  0  0  0  0  0  0
  -13.6676    3.9824   -0.0000 N   0  0  0  0  0  0  0  0  0  0  0  0
  -14.3392    1.6613   -0.0000 C   0  0  0  0  0  0  0  0  0  0  0  0
  -15.1757    3.9471   -0.0000 O   0  0  0  0  0  0  0  0  0  0  0  0
  -15.5881    2.5096   -0.0000 C   0  0  0  0  0  0  0  0  0  0  0  0
  -17.0020    2.0148   -0.0000 C   0  0  0  0  0  0  0  0  0  0  0  0
  1  2  2  0  0  0  0
  2  3  1  0  0  0  0
  2  4  1  0  0  0  0
  3  5  1  0  0  0  0
  4  6  1  0  0  0  0
  4  7  1  1  0  0  0
  7  8  1  0  0  0  0
  8  9  1  1  0  0  0
  8 10  1  0  0  0  0
  9 11  1  0  0  0  0
 10 12  2  0  0  0  0
 11 13  2  0  0  0  0
 11 14  1  0  0  0  0
 12 15  1  0  0  0  0
 14 16  1  6  0  0  0
 14 17  1  0  0  0  0
 15 18  2  0  0  0  0
 15 19  1  0  0  0  0
 16 20  1  0  0  0  0
 17 21  1  0  0  0  0
 19 22  1  0  0  0  0
 20 23  2  0  0  0  0
 20 24  1  0  0  0  0
 21 25  2  0  0  0  0
 22 26  1  0  0  0  0
 24 27  1  1  0  0  0
 24 28  1  0  0  0  0
 25 29  1  0  0  0  0
 25 30  1  0  0  0  0
 27 31  1  0  0  0  0
 28 32  1  0  0  0  0
 28 33  1  0  0  0  0
 31 34  2  0  0  0  0
 31 35  1  0  0  0  0
 35 36  2  0  0  0  0
 35 37  1  0  0  0  0
 36 38  1  0  0  0  0
 37 39  2  0  0  0  0
 39 40  1  0  0  0  0
  5  6  1  0  0  0  0
 38 39  1  0  0  0  0
M  END
>  <MolRegNo>
329386

>  <m>
=

>  <Value>
0.045

>  <Unit>
1/min

>  <Type>
kinact

>  <Ligand Efficiency>


>  <Binding Efficiency>


>  <Surface Efficiency>


>  <Assay Index>
250773

>  <Assay Category>


>  <Assay Organism>
Carona virus

>  <Target ID>
20012

>  <Target Name>
SARS coronavirus 3C-like proteinase

>  <Target Organism>
SARS coronavirus

>  <Target Description>
Target is a single protein chain

>  <Sequence Accession>
P0C6U8

>  <Reference>
J. Med. Chem. 48 (22), 6767-6771 (2005)

>  <Pubmed ID>
16250632

>  <DOI>
10.1021/jm050548m

>  <InChI-Key>
CSNQHKJCKPMZCY-IMIIHFCZSA-N

>  <Molecular Formula>
C29H42N4O7

>  <Monoisotopic Mass>
558.305351

>  <Druglikeness>
-2.5974

$$$$
Compound 74
Actelion Java MolfileCreator 1.0

 20 22  0  0  0  0  0  0  0  0999 V2000
    0.0000   -0.0000   -0.0000 O   0  0  0  0  0  0  0  0  0  0  0  0
   -0.0118    1.5102   -0.0000 C   0  0  0  0  0  0  0  0  0  0  0  0
    1.2624    2.2771   -0.0000 O   0  0  0  0  0  0  0  0  0  0  0  0
   -1.3214    2.2653   -0.0000 C   0  0  0  0  0  0  0  0  0  0  0  0
    2.5485    1.5456   -0.0000 C   0  0  0  0  0  0  0  0  0  0  0  0
   -2.0883    3.5750   -0.0000 N   0  0  0  0  0  0  0  0  0  0  0  0
   -2.8316    2.2771   -0.0000 C   0  0  0  0  0  0  0  0  0  0  0  0
   -2.1001    5.0852   -0.0000 C   0  0  0  0  0  0  0  0  0  0  0  0
   -4.1413    1.5456   -0.0000 C   0  0  0  0  0  0  0  0  0  0  0  0
   -0.8141    5.8521   -0.0000 C   0  0  0  0  0  0  0  0  0  0  0  0
   -5.4509    2.3125   -0.0000 C   0  0  0  0  0  0  0  0  0  0  0  0
   -4.1413    0.0708   -0.0000 C   0  0  0  0  0  0  0  0  0  0  0  0
    0.4719    5.1088   -0.0000 C   0  0  0  0  0  0  0  0  0  0  0  0
   -0.8377    7.3505   -0.0000 C   0  0  0  0  0  0  0  0  0  0  0  0
   -6.7606    1.5810   -0.0000 C   0  0  0  0  0  0  0  0  0  0  0  0
   -5.4391   -0.6725   -0.0000 C   0  0  0  0  0  0  0  0  0  0  0  0
    1.7580    5.8757   -0.0000 C   0  0  0  0  0  0  0  0  0  0  0  0
    0.4365    8.1056   -0.0000 C   0  0  0  0  0  0  0  0  0  0  0  0
   -6.7724    0.0944   -0.0000 C   0  0  0  0  0  0  0  0  0  0  0  0
    1.7462    7.3859   -0.0000 C   0  0  0  0  0  0  0  0  0  0  0  0
  1  2  2  0  0  0  0
  2  3  1  0  0  0  0
  2  4  1  0  0  0  0
  3  5  1  0  0  0  0
  4  6  1  0  0  0  0
  4  7  1  0  0  0  0
  6  8  1  0  0  0  0
  7  9  1  0  0  0  0
  8 10  1  0  0  0  0
  9 11  2  0  0  0  0
  9 12  1  0  0  0  0
 10 13  2  0  0  0  0
 10 14  1  0  0  0  0
 11 15  1  0  0  0  0
 12 16  2  0  0  0  0
 13 17  1  0  0  0  0
 14 18  2  0  0  0  0
 15 19  2  0  0  0  0
 17 20  2  0  0  0  0
  6  7  1  0  0  0  0
 16 19  1  0  0  0  0
 18 20  1  0  0  0  0
M  END
>  <MolRegNo>
333691

>  <m>
<

>  <Value>
10

>  <Unit>
%

>  <Type>
Inhibition

>  <Ligand Efficiency>


>  <Binding Efficiency>


>  <Surface Efficiency>


>  <Assay Index>
254534

>  <Assay Category>


>  <Assay Organism>
SARS coronavirus

>  <Target ID>
20012

>  <Target Name>
SARS coronavirus 3C-like proteinase

>  <Target Organism>
SARS coronavirus

>  <Target Description>
Target is a single protein chain

>  <Sequence Accession>
P0C6U8

>  <Reference>
Bioorg. Med. Chem. Lett. 15 (24), 5365-5369 (2005)

>  <Pubmed ID>
16216498

>  <DOI>
10.1016/j.bmcl.2005.09.012

>  <InChI-Key>
CWIVVRPOHJFJTG-UHFFFAOYSA-N

>  <Molecular Formula>
C17H17NO2

>  <Monoisotopic Mass>
267.125929

>  <Druglikeness>
0.44587

$$$$
Compound 75
Actelion Java MolfileCreator 1.0

 20 21  0  0  0  0  0  0  0  0999 V2000
    0.0000   -0.0000   -0.0000 Cl  0  0  0  0  0  0  0  0  0  0  0  0
    1.2853    0.7617   -0.0000 C   0  0  0  0  0  0  0  0  0  0  0  0
    2.5707    0.0238   -0.0000 C   0  0  0  0  0  0  0  0  0  0  0  0
    1.2734    2.2851   -0.0000 C   0  0  0  0  0  0  0  0  0  0  0  0
    3.8679    0.7855   -0.0000 C   0  0  0  0  0  0  0  0  0  0  0  0
    2.5588    3.0467   -0.0000 C   0  0  0  0  0  0  0  0  0  0  0  0
    3.8560    2.3089   -0.0000 C   0  0  0  0  0  0  0  0  0  0  0  0
    5.1414    3.0705   -0.0000 S   0  0  0  0  0  0  0  0  0  0  0  0
    5.8912    1.7852   -0.0000 O   0  0  0  0  0  0  0  0  0  0  0  0
    4.3678    4.3797   -0.0000 O   0  0  0  0  0  0  0  0  0  0  0  0
    6.4267    3.8441   -0.0000 C   0  0  0  0  0  0  0  0  0  0  0  0
    7.7240    3.1062   -0.0000 N   0  0  0  0  0  0  0  0  0  0  0  0
    6.4029    5.3437   -0.0000 C   0  0  0  0  0  0  0  0  0  0  0  0
    7.7240    1.6186   -0.0000 O   0  0  0  0  0  0  0  0  0  0  0  0
    9.0093    3.8798   -0.0000 C   0  0  0  0  0  0  0  0  0  0  0  0
    7.6764    6.1173   -0.0000 C   0  0  0  0  0  0  0  0  0  0  0  0
    8.9855    5.3913   -0.0000 C   0  0  0  0  0  0  0  0  0  0  0  0
   10.2709    6.1768   -0.0000 N   0  0  0  0  0  0  0  0  0  0  0  0
   10.2471    7.6883   -0.0000 O   0  0  0  0  0  0  0  0  0  0  0  0
   11.5681    5.4508   -0.0000 O   0  0  0  0  0  0  0  0  0  0  0  0
  1  2  1  0  0  0  0
  2  3  2  0  0  0  0
  2  4  1  0  0  0  0
  3  5  1  0  0  0  0
  4  6  2  0  0  0  0
  5  7  2  0  0  0  0
  7  8  1  0  0  0  0
  8  9  2  0  0  0  0
  8 10  2  0  0  0  0
  8 11  1  0  0  0  0
 11 12  2  0  0  0  0
 11 13  1  0  0  0  0
 12 14  1  0  0  0  0
 12 15  1  0  0  0  0
 13 16  2  0  0  0  0
 15 17  2  0  0  0  0
 17 18  1  0  0  0  0
 18 19  2  0  0  0  0
 18 20  1  0  0  0  0
  6  7  1  0  0  0  0
 16 17  1  0  0  0  0
M  CHG  4  12   1  14  -1  18   1  20  -1
M  END
>  <MolRegNo>
356370

>  <m>
=

>  <Value>
15000

>  <Unit>
nM

>  <Type>
IC50

>  <Ligand Efficiency>
0.33

>  <Binding Efficiency>
15.33

>  <Surface Efficiency>
4.63

>  <Assay Index>
266027

>  <Assay Category>


>  <Assay Organism>
SARS coronavirus

>  <Target ID>
20012

>  <Target Name>
SARS coronavirus 3C-like proteinase

>  <Target Organism>
SARS coronavirus

>  <Target Description>
Target is a single protein chain

>  <Sequence Accession>
P0C6U8

>  <Reference>
J. Med. Chem. 49 (17), 5154-5161 (2006)

>  <Pubmed ID>
16913704

>  <DOI>
10.1021/jm060207o

>  <InChI-Key>
CWTLKYCMNTVRJN-UHFFFAOYSA-N

>  <Molecular Formula>
C11H7N2O5ClS

>  <Monoisotopic Mass>
313.976420

>  <Druglikeness>
-5.8775

$$$$
Compound 76
Actelion Java MolfileCreator 1.0

 24 26  0  0  1  0  0  0  0  0999 V2000
    0.0000   -0.0000   -0.0000 O   0  0  0  0  0  0  0  0  0  0  0  0
   -1.3093    0.7549   -0.0000 C   0  0  0  0  0  0  0  0  0  0  0  0
   -1.3211    2.2530   -0.0000 C   0  0  0  0  0  0  0  0  0  0  0  0
   -2.6187    0.0236   -0.0000 C   0  0  0  0  0  0  0  0  0  0  0  0
   -2.6305    3.0197   -0.0000 C   0  0  0  0  0  0  0  0  0  0  0  0
   -0.0354    3.0079   -0.0000 C   0  0  0  0  0  0  0  0  0  0  0  0
   -3.9162    0.7785   -0.0000 C   0  0  0  0  0  0  0  0  0  0  0  0
   -2.6423    4.5296   -0.0000 C   0  0  0  0  0  0  0  0  0  0  0  0
   -3.9280    2.2766   -0.0000 C   0  0  0  0  0  0  0  0  0  0  0  0
   -0.0354    4.5178   -0.0000 C   0  0  0  0  0  0  0  0  0  0  0  0
   -5.2138    0.0472   -0.0000 C   0  0  0  0  0  0  0  0  0  0  0  0
   -3.9398    5.2963   -0.0000 O   0  0  0  0  0  0  0  0  0  0  0  0
   -1.3447    5.2846   -0.0000 C   0  0  0  0  0  0  0  0  0  0  0  0
   -5.2256    3.0433   -0.0000 C   0  0  0  0  0  0  0  0  0  0  0  0
   -3.9516    3.7865   -0.0000 C   0  0  0  0  0  0  0  0  0  0  0  0
    1.2504    5.2610   -0.0000 C   0  0  0  0  0  0  0  0  0  0  0  0
   -6.5231    0.8021   -0.0000 C   0  0  0  0  0  0  0  0  0  0  0  0
   -5.9805   -1.2268   -0.0000 C   0  0  0  0  0  0  0  0  0  0  0  0
   -4.8481   -1.3801   -0.0000 C   0  0  0  0  0  0  0  0  0  0  0  0
   -1.3447    6.7944   -0.0000 O   0  0  0  0  0  0  0  0  0  0  0  0
   -6.5231    2.3002   -0.0000 C   0  0  0  0  0  0  0  0  0  0  0  0
    2.5243    4.5178   -0.0000 C   0  0  0  0  0  0  0  0  0  0  0  0
    1.2504    6.7708   -0.0000 C   0  0  0  0  0  0  0  0  0  0  0  0
   -0.0590    7.5494   -0.0000 C   0  0  0  0  0  0  0  0  0  0  0  0
  1  2  2  0  0  0  0
  2  3  1  0  0  0  0
  2  4  1  0  0  0  0
  3  5  2  0  0  0  0
  3  6  1  0  0  0  0
  7  4  1  1  0  0  0
  5  8  1  0  0  0  0
  5  9  1  0  0  0  0
  6 10  2  0  0  0  0
  7 11  1  0  0  0  0
  8 12  1  0  0  0  0
  8 13  2  0  0  0  0
  9 14  1  0  0  0  0
  9 15  1  1  0  0  0
 10 16  1  0  0  0  0
 11 17  1  0  0  0  0
 11 18  1  0  0  0  0
 11 19  1  0  0  0  0
 13 20  1  0  0  0  0
 14 21  1  0  0  0  0
 16 22  1  0  0  0  0
 16 23  1  0  0  0  0
 20 24  1  0  0  0  0
  7  9  1  0  0  0  0
 10 13  1  0  0  0  0
 17 21  1  0  0  0  0
M  END
>  <MolRegNo>
387457

>  <m>
>

>  <Value>
10000

>  <Unit>
nM

>  <Type>
EC50

>  <Ligand Efficiency>


>  <Binding Efficiency>


>  <Surface Efficiency>


>  <Assay Index>
294026

>  <Assay Category>


>  <Assay Organism>
SARS coronavirus

>  <Target ID>
100499

>  <Target Name>
SARS coronavirus

>  <Target Organism>
SARS coronavirus

>  <Target Description>
Target is a complete organism

>  <Sequence Accession>


>  <Reference>
J. Med. Chem. 50 (17), 4087-4095 (2007)

>  <Pubmed ID>
17663539

>  <DOI>
10.1021/jm070295s

>  <InChI-Key>
CZEPBGSMIRTHKN-IERDGZPVSA-N

>  <Molecular Formula>
C21H30O3

>  <Monoisotopic Mass>
330.219495

>  <Druglikeness>
-4.3704

$$$$
Compound 77
Actelion Java MolfileCreator 1.0

 24 26  0  0  1  0  0  0  0  0999 V2000
    0.0000   -0.0000   -0.0000 O   0  0  0  0  0  0  0  0  0  0  0  0
   -1.3093    0.7549   -0.0000 C   0  0  0  0  0  0  0  0  0  0  0  0
   -1.3211    2.2530   -0.0000 C   0  0  0  0  0  0  0  0  0  0  0  0
   -2.6187    0.0236   -0.0000 C   0  0  0  0  0  0  0  0  0  0  0  0
   -2.6305    3.0197   -0.0000 C   0  0  0  0  0  0  0  0  0  0  0  0
   -0.0354    3.0079   -0.0000 C   0  0  0  0  0  0  0  0  0  0  0  0
   -3.9162    0.7785   -0.0000 C   0  0  0  0  0  0  0  0  0  0  0  0
   -2.6423    4.5296   -0.0000 C   0  0  0  0  0  0  0  0  0  0  0  0
   -3.9280    2.2766   -0.0000 C   0  0  0  0  0  0  0  0  0  0  0  0
   -0.0354    4.5178   -0.0000 C   0  0  0  0  0  0  0  0  0  0  0  0
   -5.2138    0.0472   -0.0000 C   0  0  0  0  0  0  0  0  0  0  0  0
   -3.9398    5.2963   -0.0000 O   0  0  0  0  0  0  0  0  0  0  0  0
   -1.3447    5.2846   -0.0000 C   0  0  0  0  0  0  0  0  0  0  0  0
   -5.2256    3.0433   -0.0000 C   0  0  0  0  0  0  0  0  0  0  0  0
   -3.9516    3.7865   -0.0000 C   0  0  0  0  0  0  0  0  0  0  0  0
    1.2504    5.2610   -0.0000 C   0  0  0  0  0  0  0  0  0  0  0  0
   -6.5231    0.8021   -0.0000 C   0  0  0  0  0  0  0  0  0  0  0  0
   -5.9805   -1.2268   -0.0000 C   0  0  0  0  0  0  0  0  0  0  0  0
   -4.8481   -1.3801   -0.0000 C   0  0  0  0  0  0  0  0  0  0  0  0
   -1.3447    6.7944   -0.0000 O   0  0  0  0  0  0  0  0  0  0  0  0
   -6.5231    2.3002   -0.0000 C   0  0  0  0  0  0  0  0  0  0  0  0
    2.5243    4.5178   -0.0000 C   0  0  0  0  0  0  0  0  0  0  0  0
    1.2504    6.7708   -0.0000 C   0  0  0  0  0  0  0  0  0  0  0  0
   -0.0590    7.5494   -0.0000 C   0  0  0  0  0  0  0  0  0  0  0  0
  1  2  2  0  0  0  0
  2  3  1  0  0  0  0
  2  4  1  0  0  0  0
  3  5  2  0  0  0  0
  3  6  1  0  0  0  0
  7  4  1  1  0  0  0
  5  8  1  0  0  0  0
  5  9  1  0  0  0  0
  6 10  2  0  0  0  0
  7 11  1  0  0  0  0
  8 12  1  0  0  0  0
  8 13  2  0  0  0  0
  9 14  1  0  0  0  0
  9 15  1  1  0  0  0
 10 16  1  0  0  0  0
 11 17  1  0  0  0  0
 11 18  1  0  0  0  0
 11 19  1  0  0  0  0
 13 20  1  0  0  0  0
 14 21  1  0  0  0  0
 16 22  1  0  0  0  0
 16 23  1  0  0  0  0
 20 24  1  0  0  0  0
  7  9  1  0  0  0  0
 10 13  1  0  0  0  0
 17 21  1  0  0  0  0
M  END
>  <MolRegNo>
387457

>  <m>
<

>  <Value>
25

>  <Unit>
%

>  <Type>
Inhibition

>  <Ligand Efficiency>


>  <Binding Efficiency>


>  <Surface Efficiency>


>  <Assay Index>
294022

>  <Assay Category>


>  <Assay Organism>
SARS coronavirus

>  <Target ID>
100499

>  <Target Name>
SARS coronavirus

>  <Target Organism>
SARS coronavirus

>  <Target Description>
Target is a complete organism

>  <Sequence Accession>


>  <Reference>
J. Med. Chem. 50 (17), 4087-4095 (2007)

>  <Pubmed ID>
17663539

>  <DOI>
10.1021/jm070295s

>  <InChI-Key>
CZEPBGSMIRTHKN-IERDGZPVSA-N

>  <Molecular Formula>
C21H30O3

>  <Monoisotopic Mass>
330.219495

>  <Druglikeness>
-4.3704

$$$$
Compound 78
Actelion Java MolfileCreator 1.0

 24 26  0  0  1  0  0  0  0  0999 V2000
    0.0000   -0.0000   -0.0000 O   0  0  0  0  0  0  0  0  0  0  0  0
   -1.3093    0.7549   -0.0000 C   0  0  0  0  0  0  0  0  0  0  0  0
   -1.3211    2.2530   -0.0000 C   0  0  0  0  0  0  0  0  0  0  0  0
   -2.6187    0.0236   -0.0000 C   0  0  0  0  0  0  0  0  0  0  0  0
   -2.6305    3.0197   -0.0000 C   0  0  0  0  0  0  0  0  0  0  0  0
   -0.0354    3.0079   -0.0000 C   0  0  0  0  0  0  0  0  0  0  0  0
   -3.9162    0.7785   -0.0000 C   0  0  0  0  0  0  0  0  0  0  0  0
   -2.6423    4.5296   -0.0000 C   0  0  0  0  0  0  0  0  0  0  0  0
   -3.9280    2.2766   -0.0000 C   0  0  0  0  0  0  0  0  0  0  0  0
   -0.0354    4.5178   -0.0000 C   0  0  0  0  0  0  0  0  0  0  0  0
   -5.2138    0.0472   -0.0000 C   0  0  0  0  0  0  0  0  0  0  0  0
   -3.9398    5.2963   -0.0000 O   0  0  0  0  0  0  0  0  0  0  0  0
   -1.3447    5.2846   -0.0000 C   0  0  0  0  0  0  0  0  0  0  0  0
   -5.2256    3.0433   -0.0000 C   0  0  0  0  0  0  0  0  0  0  0  0
   -3.9516    3.7865   -0.0000 C   0  0  0  0  0  0  0  0  0  0  0  0
    1.2504    5.2610   -0.0000 C   0  0  0  0  0  0  0  0  0  0  0  0
   -6.5231    0.8021   -0.0000 C   0  0  0  0  0  0  0  0  0  0  0  0
   -5.9805   -1.2268   -0.0000 C   0  0  0  0  0  0  0  0  0  0  0  0
   -4.8481   -1.3801   -0.0000 C   0  0  0  0  0  0  0  0  0  0  0  0
   -1.3447    6.7944   -0.0000 O   0  0  0  0  0  0  0  0  0  0  0  0
   -6.5231    2.3002   -0.0000 C   0  0  0  0  0  0  0  0  0  0  0  0
    2.5243    4.5178   -0.0000 C   0  0  0  0  0  0  0  0  0  0  0  0
    1.2504    6.7708   -0.0000 C   0  0  0  0  0  0  0  0  0  0  0  0
   -0.0590    7.5494   -0.0000 C   0  0  0  0  0  0  0  0  0  0  0  0
  1  2  2  0  0  0  0
  2  3  1  0  0  0  0
  2  4  1  0  0  0  0
  3  5  2  0  0  0  0
  3  6  1  0  0  0  0
  7  4  1  1  0  0  0
  5  8  1  0  0  0  0
  5  9  1  0  0  0  0
  6 10  2  0  0  0  0
  7 11  1  0  0  0  0
  8 12  1  0  0  0  0
  8 13  2  0  0  0  0
  9 14  1  0  0  0  0
  9 15  1  1  0  0  0
 10 16  1  0  0  0  0
 11 17  1  0  0  0  0
 11 18  1  0  0  0  0
 11 19  1  0  0  0  0
 13 20  1  0  0  0  0
 14 21  1  0  0  0  0
 16 22  1  0  0  0  0
 16 23  1  0  0  0  0
 20 24  1  0  0  0  0
  7  9  1  0  0  0  0
 10 13  1  0  0  0  0
 17 21  1  0  0  0  0
M  END
>  <MolRegNo>
387457

>  <m>
<

>  <Value>
25

>  <Unit>
%

>  <Type>
Inhibition

>  <Ligand Efficiency>


>  <Binding Efficiency>


>  <Surface Efficiency>


>  <Assay Index>
294023

>  <Assay Category>


>  <Assay Organism>
SARS coronavirus

>  <Target ID>
100499

>  <Target Name>
SARS coronavirus

>  <Target Organism>
SARS coronavirus

>  <Target Description>
Target is a complete organism

>  <Sequence Accession>


>  <Reference>
J. Med. Chem. 50 (17), 4087-4095 (2007)

>  <Pubmed ID>
17663539

>  <DOI>
10.1021/jm070295s

>  <InChI-Key>
CZEPBGSMIRTHKN-IERDGZPVSA-N

>  <Molecular Formula>
C21H30O3

>  <Monoisotopic Mass>
330.219495

>  <Druglikeness>
-4.3704

$$$$
Compound 79
Actelion Java MolfileCreator 1.0

 24 26  0  0  1  0  0  0  0  0999 V2000
    0.0000   -0.0000   -0.0000 O   0  0  0  0  0  0  0  0  0  0  0  0
   -1.3093    0.7549   -0.0000 C   0  0  0  0  0  0  0  0  0  0  0  0
   -1.3211    2.2530   -0.0000 C   0  0  0  0  0  0  0  0  0  0  0  0
   -2.6187    0.0236   -0.0000 C   0  0  0  0  0  0  0  0  0  0  0  0
   -2.6305    3.0197   -0.0000 C   0  0  0  0  0  0  0  0  0  0  0  0
   -0.0354    3.0079   -0.0000 C   0  0  0  0  0  0  0  0  0  0  0  0
   -3.9162    0.7785   -0.0000 C   0  0  0  0  0  0  0  0  0  0  0  0
   -2.6423    4.5296   -0.0000 C   0  0  0  0  0  0  0  0  0  0  0  0
   -3.9280    2.2766   -0.0000 C   0  0  0  0  0  0  0  0  0  0  0  0
   -0.0354    4.5178   -0.0000 C   0  0  0  0  0  0  0  0  0  0  0  0
   -5.2138    0.0472   -0.0000 C   0  0  0  0  0  0  0  0  0  0  0  0
   -3.9398    5.2963   -0.0000 O   0  0  0  0  0  0  0  0  0  0  0  0
   -1.3447    5.2846   -0.0000 C   0  0  0  0  0  0  0  0  0  0  0  0
   -5.2256    3.0433   -0.0000 C   0  0  0  0  0  0  0  0  0  0  0  0
   -3.9516    3.7865   -0.0000 C   0  0  0  0  0  0  0  0  0  0  0  0
    1.2504    5.2610   -0.0000 C   0  0  0  0  0  0  0  0  0  0  0  0
   -6.5231    0.8021   -0.0000 C   0  0  0  0  0  0  0  0  0  0  0  0
   -5.9805   -1.2268   -0.0000 C   0  0  0  0  0  0  0  0  0  0  0  0
   -4.8481   -1.3801   -0.0000 C   0  0  0  0  0  0  0  0  0  0  0  0
   -1.3447    6.7944   -0.0000 O   0  0  0  0  0  0  0  0  0  0  0  0
   -6.5231    2.3002   -0.0000 C   0  0  0  0  0  0  0  0  0  0  0  0
    2.5243    4.5178   -0.0000 C   0  0  0  0  0  0  0  0  0  0  0  0
    1.2504    6.7708   -0.0000 C   0  0  0  0  0  0  0  0  0  0  0  0
   -0.0590    7.5494   -0.0000 C   0  0  0  0  0  0  0  0  0  0  0  0
  1  2  2  0  0  0  0
  2  3  1  0  0  0  0
  2  4  1  0  0  0  0
  3  5  2  0  0  0  0
  3  6  1  0  0  0  0
  7  4  1  1  0  0  0
  5  8  1  0  0  0  0
  5  9  1  0  0  0  0
  6 10  2  0  0  0  0
  7 11  1  0  0  0  0
  8 12  1  0  0  0  0
  8 13  2  0  0  0  0
  9 14  1  0  0  0  0
  9 15  1  1  0  0  0
 10 16  1  0  0  0  0
 11 17  1  0  0  0  0
 11 18  1  0  0  0  0
 11 19  1  0  0  0  0
 13 20  1  0  0  0  0
 14 21  1  0  0  0  0
 16 22  1  0  0  0  0
 16 23  1  0  0  0  0
 20 24  1  0  0  0  0
  7  9  1  0  0  0  0
 10 13  1  0  0  0  0
 17 21  1  0  0  0  0
M  END
>  <MolRegNo>
387457

>  <m>


>  <Value>
0

>  <Unit>


>  <Type>
Inhibition

>  <Ligand Efficiency>


>  <Binding Efficiency>


>  <Surface Efficiency>


>  <Assay Index>
294025

>  <Assay Category>


>  <Assay Organism>
SARS coronavirus

>  <Target ID>
100499

>  <Target Name>
SARS coronavirus

>  <Target Organism>
SARS coronavirus

>  <Target Description>
Target is a complete organism

>  <Sequence Accession>


>  <Reference>
J. Med. Chem. 50 (17), 4087-4095 (2007)

>  <Pubmed ID>
17663539

>  <DOI>
10.1021/jm070295s

>  <InChI-Key>
CZEPBGSMIRTHKN-IERDGZPVSA-N

>  <Molecular Formula>
C21H30O3

>  <Monoisotopic Mass>
330.219495

>  <Druglikeness>
-4.3704

$$$$
Compound 80
Actelion Java MolfileCreator 1.0

 24 26  0  0  1  0  0  0  0  0999 V2000
    0.0000   -0.0000   -0.0000 O   0  0  0  0  0  0  0  0  0  0  0  0
   -1.3093    0.7549   -0.0000 C   0  0  0  0  0  0  0  0  0  0  0  0
   -1.3211    2.2530   -0.0000 C   0  0  0  0  0  0  0  0  0  0  0  0
   -2.6187    0.0236   -0.0000 C   0  0  0  0  0  0  0  0  0  0  0  0
   -2.6305    3.0197   -0.0000 C   0  0  0  0  0  0  0  0  0  0  0  0
   -0.0354    3.0079   -0.0000 C   0  0  0  0  0  0  0  0  0  0  0  0
   -3.9162    0.7785   -0.0000 C   0  0  0  0  0  0  0  0  0  0  0  0
   -2.6423    4.5296   -0.0000 C   0  0  0  0  0  0  0  0  0  0  0  0
   -3.9280    2.2766   -0.0000 C   0  0  0  0  0  0  0  0  0  0  0  0
   -0.0354    4.5178   -0.0000 C   0  0  0  0  0  0  0  0  0  0  0  0
   -5.2138    0.0472   -0.0000 C   0  0  0  0  0  0  0  0  0  0  0  0
   -3.9398    5.2963   -0.0000 O   0  0  0  0  0  0  0  0  0  0  0  0
   -1.3447    5.2846   -0.0000 C   0  0  0  0  0  0  0  0  0  0  0  0
   -5.2256    3.0433   -0.0000 C   0  0  0  0  0  0  0  0  0  0  0  0
   -3.9516    3.7865   -0.0000 C   0  0  0  0  0  0  0  0  0  0  0  0
    1.2504    5.2610   -0.0000 C   0  0  0  0  0  0  0  0  0  0  0  0
   -6.5231    0.8021   -0.0000 C   0  0  0  0  0  0  0  0  0  0  0  0
   -5.9805   -1.2268   -0.0000 C   0  0  0  0  0  0  0  0  0  0  0  0
   -4.8481   -1.3801   -0.0000 C   0  0  0  0  0  0  0  0  0  0  0  0
   -1.3447    6.7944   -0.0000 O   0  0  0  0  0  0  0  0  0  0  0  0
   -6.5231    2.3002   -0.0000 C   0  0  0  0  0  0  0  0  0  0  0  0
    2.5243    4.5178   -0.0000 C   0  0  0  0  0  0  0  0  0  0  0  0
    1.2504    6.7708   -0.0000 C   0  0  0  0  0  0  0  0  0  0  0  0
   -0.0590    7.5494   -0.0000 C   0  0  0  0  0  0  0  0  0  0  0  0
  1  2  2  0  0  0  0
  2  3  1  0  0  0  0
  2  4  1  0  0  0  0
  3  5  2  0  0  0  0
  3  6  1  0  0  0  0
  7  4  1  1  0  0  0
  5  8  1  0  0  0  0
  5  9  1  0  0  0  0
  6 10  2  0  0  0  0
  7 11  1  0  0  0  0
  8 12  1  0  0  0  0
  8 13  2  0  0  0  0
  9 14  1  0  0  0  0
  9 15  1  1  0  0  0
 10 16  1  0  0  0  0
 11 17  1  0  0  0  0
 11 18  1  0  0  0  0
 11 19  1  0  0  0  0
 13 20  1  0  0  0  0
 14 21  1  0  0  0  0
 16 22  1  0  0  0  0
 16 23  1  0  0  0  0
 20 24  1  0  0  0  0
  7  9  1  0  0  0  0
 10 13  1  0  0  0  0
 17 21  1  0  0  0  0
M  END
>  <MolRegNo>
387457

>  <m>


>  <Value>
0

>  <Unit>


>  <Type>
Inhibition

>  <Ligand Efficiency>


>  <Binding Efficiency>


>  <Surface Efficiency>


>  <Assay Index>
294024

>  <Assay Category>


>  <Assay Organism>
SARS coronavirus

>  <Target ID>
100499

>  <Target Name>
SARS coronavirus

>  <Target Organism>
SARS coronavirus

>  <Target Description>
Target is a complete organism

>  <Sequence Accession>


>  <Reference>
J. Med. Chem. 50 (17), 4087-4095 (2007)

>  <Pubmed ID>
17663539

>  <DOI>
10.1021/jm070295s

>  <InChI-Key>
CZEPBGSMIRTHKN-IERDGZPVSA-N

>  <Molecular Formula>
C21H30O3

>  <Monoisotopic Mass>
330.219495

>  <Druglikeness>
-4.3704

$$$$
Compound 81
Actelion Java MolfileCreator 1.0

 48 50  0  0  1  0  0  0  0  0999 V2000
    0.0000   -0.0000   -0.0000 S   0  0  0  0  0  0  0  0  0  0  0  0
    1.2024    0.8841   -0.0000 C   0  0  0  0  0  0  0  0  0  0  0  0
    0.4362   -1.4146   -0.0000 C   0  0  0  0  0  0  0  0  0  0  0  0
    1.2024    2.3930   -0.0000 C   0  0  0  0  0  0  0  0  0  0  0  0
    2.3930    0.0118   -0.0000 C   0  0  0  0  0  0  0  0  0  0  0  0
    1.9215   -1.4146   -0.0000 C   0  0  0  0  0  0  0  0  0  0  0  0
    2.4873    3.1475   -0.0000 O   0  0  0  0  0  0  0  0  0  0  0  0
   -0.1061    3.1593   -0.0000 C   0  0  0  0  0  0  0  0  0  0  0  0
   -1.4146    2.4284   -0.0000 N   0  0  0  0  0  0  0  0  0  0  0  0
   -0.1061    4.6682   -0.0000 C   0  0  0  0  0  0  0  0  0  0  0  0
   -2.7231    3.1946   -0.0000 C   0  0  0  0  0  0  0  0  0  0  0  0
    1.1788    5.4226   -0.0000 C   0  0  0  0  0  0  0  0  0  0  0  0
   -2.7231    4.7035   -0.0000 O   0  0  0  0  0  0  0  0  0  0  0  0
   -4.0316    2.4638   -0.0000 C   0  0  0  0  0  0  0  0  0  0  0  0
    1.3203    6.9197   -0.0000 C   0  0  0  0  0  0  0  0  0  0  0  0
    2.5227    4.8096   -0.0000 C   0  0  0  0  0  0  0  0  0  0  0  0
   -5.3401    3.2300   -0.0000 N   0  0  0  0  0  0  0  0  0  0  0  0
   -4.0552    0.9784   -0.0000 C   0  0  0  0  0  0  0  0  0  0  0  0
    0.2004    7.9335   -0.0000 O   0  0  0  0  0  0  0  0  0  0  0  0
    2.7703    7.2380   -0.0000 N   0  0  0  0  0  0  0  0  0  0  0  0
    3.5247    5.9295   -0.0000 C   0  0  0  0  0  0  0  0  0  0  0  0
   -6.6486    2.4991   -0.0000 C   0  0  0  0  0  0  0  0  0  0  0  0
   -2.7703    0.2358   -0.0000 C   0  0  0  0  0  0  0  0  0  0  0  0
   -6.6722    1.0138   -0.0000 O   0  0  0  0  0  0  0  0  0  0  0  0
   -7.9571    3.2654   -0.0000 C   0  0  0  0  0  0  0  0  0  0  0  0
   -2.7938   -1.2496   -0.0000 C   0  0  0  0  0  0  0  0  0  0  0  0
   -1.4853    0.9902   -0.0000 C   0  0  0  0  0  0  0  0  0  0  0  0
   -9.2656    2.5345   -0.0000 N   0  0  0  0  0  0  0  0  0  0  0  0
   -7.9571    4.7743   -0.0000 C   0  0  0  0  0  0  0  0  0  0  0  0
  -10.5741    3.3007   -0.0000 C   0  0  0  0  0  0  0  0  0  0  0  0
   -9.2656    5.5405   -0.0000 O   0  0  0  0  0  0  0  0  0  0  0  0
   -6.6722    5.5287   -0.0000 C   0  0  0  0  0  0  0  0  0  0  0  0
  -10.5741    4.8096   -0.0000 O   0  0  0  0  0  0  0  0  0  0  0  0
  -11.8826    2.5699   -0.0000 C   0  0  0  0  0  0  0  0  0  0  0  0
   -9.2656    7.0494   -0.0000 C   0  0  0  0  0  0  0  0  0  0  0  0
  -13.1911    3.3361   -0.0000 N   0  0  0  0  0  0  0  0  0  0  0  0
  -11.9062    1.0845   -0.0000 C   0  0  0  0  0  0  0  0  0  0  0  0
  -10.5741    7.8156   -0.0000 C   0  0  0  0  0  0  0  0  0  0  0  0
  -14.4996    2.6052   -0.0000 C   0  0  0  0  0  0  0  0  0  0  0  0
  -13.2147    0.3536   -0.0000 C   0  0  0  0  0  0  0  0  0  0  0  0
  -10.6213    0.3419   -0.0000 C   0  0  0  0  0  0  0  0  0  0  0  0
  -10.5623    9.3245   -0.0000 C   0  0  0  0  0  0  0  0  0  0  0  0
  -11.8708    7.0966   -0.0000 C   0  0  0  0  0  0  0  0  0  0  0  0
  -14.5232    1.1199   -0.0000 O   0  0  0  0  0  0  0  0  0  0  0  0
  -15.8081    3.3715   -0.0000 C   0  0  0  0  0  0  0  0  0  0  0  0
  -11.8590   10.0908   -0.0000 C   0  0  0  0  0  0  0  0  0  0  0  0
  -13.1793    7.8628   -0.0000 C   0  0  0  0  0  0  0  0  0  0  0  0
  -13.1793    9.3717   -0.0000 C   0  0  0  0  0  0  0  0  0  0  0  0
  1  2  1  0  0  0  0
  1  3  1  0  0  0  0
  2  4  1  0  0  0  0
  2  5  2  0  0  0  0
  3  6  2  0  0  0  0
  4  7  2  0  0  0  0
  4  8  1  0  0  0  0
  8  9  1  1  0  0  0
  8 10  1  0  0  0  0
  9 11  1  0  0  0  0
 12 10  1  1  0  0  0
 11 13  2  0  0  0  0
 11 14  1  0  0  0  0
 12 15  1  0  0  0  0
 12 16  1  0  0  0  0
 14 17  1  6  0  0  0
 14 18  1  0  0  0  0
 15 19  2  0  0  0  0
 15 20  1  0  0  0  0
 16 21  1  0  0  0  0
 17 22  1  0  0  0  0
 18 23  1  0  0  0  0
 22 24  2  0  0  0  0
 22 25  1  0  0  0  0
 23 26  1  0  0  0  0
 23 27  1  0  0  0  0
 25 28  1  1  0  0  0
 25 29  1  0  0  0  0
 28 30  1  0  0  0  0
 29 31  1  6  0  0  0
 29 32  1  0  0  0  0
 30 33  2  0  0  0  0
 30 34  1  0  0  0  0
 31 35  1  0  0  0  0
 34 36  1  6  0  0  0
 34 37  1  0  0  0  0
 35 38  1  0  0  0  0
 36 39  1  0  0  0  0
 37 40  1  0  0  0  0
 37 41  1  0  0  0  0
 38 42  2  0  0  0  0
 38 43  1  0  0  0  0
 39 44  2  0  0  0  0
 39 45  1  0  0  0  0
 42 46  1  0  0  0  0
 43 47  2  0  0  0  0
 46 48  2  0  0  0  0
  5  6  1  0  0  0  0
 20 21  1  0  0  0  0
 47 48  1  0  0  0  0
M  END
>  <MolRegNo>
371775

>  <m>
<

>  <Value>
10

>  <Unit>
%

>  <Type>
Inhibition

>  <Ligand Efficiency>


>  <Binding Efficiency>


>  <Surface Efficiency>


>  <Assay Index>
278390

>  <Assay Category>


>  <Assay Organism>
SARS coronavirus

>  <Target ID>
20012

>  <Target Name>
SARS coronavirus 3C-like proteinase

>  <Target Organism>
SARS coronavirus

>  <Target Description>
Target is a single protein chain

>  <Sequence Accession>
P0C6U8

>  <Reference>
J. Med. Chem. 50 (8), 1850-1864 (2007)

>  <Pubmed ID>
17381079

>  <DOI>
10.1021/jm061425k

>  <InChI-Key>
CZOUMHMETDLVRR-IUKJXSKWSA-N

>  <Molecular Formula>
C35H49N5O7S

>  <Monoisotopic Mass>
683.335270

>  <Druglikeness>
3.5681

$$$$
Compound 82
Actelion Java MolfileCreator 1.0

 26 30  0  0  0  0  0  0  0  0999 V2000
    0.0000   -0.0000   -0.0000 O   0  0  0  0  0  0  0  0  0  0  0  0
   -0.5563   -1.3843   -0.0000 C   0  0  0  0  0  0  0  0  0  0  0  0
   -2.0053   -1.8242   -0.0000 O   0  0  0  0  0  0  0  0  0  0  0  0
    0.1682   -2.6651   -0.0000 C   0  0  0  0  0  0  0  0  0  0  0  0
   -2.0312   -3.3120   -0.0000 C   0  0  0  0  0  0  0  0  0  0  0  0
   -0.5951   -3.7907   -0.0000 C   0  0  0  0  0  0  0  0  0  0  0  0
    1.7983   -2.5746   -0.0000 C   0  0  0  0  0  0  0  0  0  0  0  0
   -0.1164   -5.2009   -0.0000 C   0  0  0  0  0  0  0  0  0  0  0  0
    2.5487   -1.2679   -0.0000 C   0  0  0  0  0  0  0  0  0  0  0  0
   -1.1126   -6.3265   -0.0000 C   0  0  0  0  0  0  0  0  0  0  0  0
    1.7983    0.0388   -0.0000 C   0  0  0  0  0  0  0  0  0  0  0  0
    4.0365   -1.2679   -0.0000 C   0  0  0  0  0  0  0  0  0  0  0  0
   -0.6339   -7.7238   -0.0000 C   0  0  0  0  0  0  0  0  0  0  0  0
   -2.6134   -6.0289   -0.0000 C   0  0  0  0  0  0  0  0  0  0  0  0
    2.5487    1.3455   -0.0000 C   0  0  0  0  0  0  0  0  0  0  0  0
    4.7740    0.0518   -0.0000 C   0  0  0  0  0  0  0  0  0  0  0  0
   -1.6172   -8.8493   -0.0000 C   0  0  0  0  0  0  0  0  0  0  0  0
   -3.5967   -7.1545   -0.0000 C   0  0  0  0  0  0  0  0  0  0  0  0
    2.0700    2.7686   -0.0000 O   0  0  0  0  0  0  0  0  0  0  0  0
    4.0236    1.3584   -0.0000 C   0  0  0  0  0  0  0  0  0  0  0  0
   -1.4361  -10.3372   -0.0000 O   0  0  0  0  0  0  0  0  0  0  0  0
   -3.1309   -8.5647   -0.0000 C   0  0  0  0  0  0  0  0  0  0  0  0
    3.2603    3.6613   -0.0000 C   0  0  0  0  0  0  0  0  0  0  0  0
    4.4635    2.7816   -0.0000 O   0  0  0  0  0  0  0  0  0  0  0  0
   -2.8204  -10.9711   -0.0000 C   0  0  0  0  0  0  0  0  0  0  0  0
   -3.8683   -9.8843   -0.0000 O   0  0  0  0  0  0  0  0  0  0  0  0
  1  2  2  0  0  0  0
  2  3  1  0  0  0  0
  2  4  1  0  0  0  0
  3  5  1  0  0  0  0
  4  6  1  0  0  0  0
  4  7  1  1  0  0  0
  6  8  1  6  0  0  0
  7  9  1  0  0  0  0
  8 10  1  0  0  0  0
  9 11  2  0  0  0  0
  9 12  1  0  0  0  0
 10 13  2  0  0  0  0
 10 14  1  0  0  0  0
 11 15  1  0  0  0  0
 12 16  2  0  0  0  0
 13 17  1  0  0  0  0
 14 18  2  0  0  0  0
 15 19  1  0  0  0  0
 15 20  2  0  0  0  0
 17 21  1  0  0  0  0
 17 22  2  0  0  0  0
 19 23  1  0  0  0  0
 20 24  1  0  0  0  0
 21 25  1  0  0  0  0
 22 26  1  0  0  0  0
  5  6  1  0  0  0  0
 16 20  1  0  0  0  0
 18 22  1  0  0  0  0
 23 24  1  0  0  0  0
 25 26  1  0  0  0  0
M  END
>  <MolRegNo>
387491

>  <m>
>

>  <Value>
10000

>  <Unit>
nM

>  <Type>
EC50

>  <Ligand Efficiency>


>  <Binding Efficiency>


>  <Surface Efficiency>


>  <Assay Index>
294026

>  <Assay Category>


>  <Assay Organism>
SARS coronavirus

>  <Target ID>
100499

>  <Target Name>
SARS coronavirus

>  <Target Organism>
SARS coronavirus

>  <Target Description>
Target is a complete organism

>  <Sequence Accession>


>  <Reference>
J. Med. Chem. 50 (17), 4087-4095 (2007)

>  <Pubmed ID>
17663539

>  <DOI>
10.1021/jm070295s

>  <InChI-Key>
DDWGQGZPYDSYEL-GJZGRUSLSA-N

>  <Molecular Formula>
C20H18O6

>  <Monoisotopic Mass>
354.110340

>  <Druglikeness>
0.19401

$$$$
Compound 83
Actelion Java MolfileCreator 1.0

 26 30  0  0  0  0  0  0  0  0999 V2000
    0.0000   -0.0000   -0.0000 O   0  0  0  0  0  0  0  0  0  0  0  0
   -0.5563   -1.3843   -0.0000 C   0  0  0  0  0  0  0  0  0  0  0  0
   -2.0053   -1.8242   -0.0000 O   0  0  0  0  0  0  0  0  0  0  0  0
    0.1682   -2.6651   -0.0000 C   0  0  0  0  0  0  0  0  0  0  0  0
   -2.0312   -3.3120   -0.0000 C   0  0  0  0  0  0  0  0  0  0  0  0
   -0.5951   -3.7907   -0.0000 C   0  0  0  0  0  0  0  0  0  0  0  0
    1.7983   -2.5746   -0.0000 C   0  0  0  0  0  0  0  0  0  0  0  0
   -0.1164   -5.2009   -0.0000 C   0  0  0  0  0  0  0  0  0  0  0  0
    2.5487   -1.2679   -0.0000 C   0  0  0  0  0  0  0  0  0  0  0  0
   -1.1126   -6.3265   -0.0000 C   0  0  0  0  0  0  0  0  0  0  0  0
    1.7983    0.0388   -0.0000 C   0  0  0  0  0  0  0  0  0  0  0  0
    4.0365   -1.2679   -0.0000 C   0  0  0  0  0  0  0  0  0  0  0  0
   -0.6339   -7.7238   -0.0000 C   0  0  0  0  0  0  0  0  0  0  0  0
   -2.6134   -6.0289   -0.0000 C   0  0  0  0  0  0  0  0  0  0  0  0
    2.5487    1.3455   -0.0000 C   0  0  0  0  0  0  0  0  0  0  0  0
    4.7740    0.0518   -0.0000 C   0  0  0  0  0  0  0  0  0  0  0  0
   -1.6172   -8.8493   -0.0000 C   0  0  0  0  0  0  0  0  0  0  0  0
   -3.5967   -7.1545   -0.0000 C   0  0  0  0  0  0  0  0  0  0  0  0
    2.0700    2.7686   -0.0000 O   0  0  0  0  0  0  0  0  0  0  0  0
    4.0236    1.3584   -0.0000 C   0  0  0  0  0  0  0  0  0  0  0  0
   -1.4361  -10.3372   -0.0000 O   0  0  0  0  0  0  0  0  0  0  0  0
   -3.1309   -8.5647   -0.0000 C   0  0  0  0  0  0  0  0  0  0  0  0
    3.2603    3.6613   -0.0000 C   0  0  0  0  0  0  0  0  0  0  0  0
    4.4635    2.7816   -0.0000 O   0  0  0  0  0  0  0  0  0  0  0  0
   -2.8204  -10.9711   -0.0000 C   0  0  0  0  0  0  0  0  0  0  0  0
   -3.8683   -9.8843   -0.0000 O   0  0  0  0  0  0  0  0  0  0  0  0
  1  2  2  0  0  0  0
  2  3  1  0  0  0  0
  2  4  1  0  0  0  0
  3  5  1  0  0  0  0
  4  6  1  0  0  0  0
  4  7  1  1  0  0  0
  6  8  1  6  0  0  0
  7  9  1  0  0  0  0
  8 10  1  0  0  0  0
  9 11  2  0  0  0  0
  9 12  1  0  0  0  0
 10 13  2  0  0  0  0
 10 14  1  0  0  0  0
 11 15  1  0  0  0  0
 12 16  2  0  0  0  0
 13 17  1  0  0  0  0
 14 18  2  0  0  0  0
 15 19  1  0  0  0  0
 15 20  2  0  0  0  0
 17 21  1  0  0  0  0
 17 22  2  0  0  0  0
 19 23  1  0  0  0  0
 20 24  1  0  0  0  0
 21 25  1  0  0  0  0
 22 26  1  0  0  0  0
  5  6  1  0  0  0  0
 16 20  1  0  0  0  0
 18 22  1  0  0  0  0
 23 24  1  0  0  0  0
 25 26  1  0  0  0  0
M  END
>  <MolRegNo>
387491

>  <m>
=

>  <Value>
50

>  <Unit>
%

>  <Type>
Inhibition

>  <Ligand Efficiency>


>  <Binding Efficiency>


>  <Surface Efficiency>


>  <Assay Index>
294025

>  <Assay Category>


>  <Assay Organism>
SARS coronavirus

>  <Target ID>
100499

>  <Target Name>
SARS coronavirus

>  <Target Organism>
SARS coronavirus

>  <Target Description>
Target is a complete organism

>  <Sequence Accession>


>  <Reference>
J. Med. Chem. 50 (17), 4087-4095 (2007)

>  <Pubmed ID>
17663539

>  <DOI>
10.1021/jm070295s

>  <InChI-Key>
DDWGQGZPYDSYEL-GJZGRUSLSA-N

>  <Molecular Formula>
C20H18O6

>  <Monoisotopic Mass>
354.110340

>  <Druglikeness>
0.19401

$$$$
Compound 84
Actelion Java MolfileCreator 1.0

 26 30  0  0  0  0  0  0  0  0999 V2000
    0.0000   -0.0000   -0.0000 O   0  0  0  0  0  0  0  0  0  0  0  0
   -0.5563   -1.3843   -0.0000 C   0  0  0  0  0  0  0  0  0  0  0  0
   -2.0053   -1.8242   -0.0000 O   0  0  0  0  0  0  0  0  0  0  0  0
    0.1682   -2.6651   -0.0000 C   0  0  0  0  0  0  0  0  0  0  0  0
   -2.0312   -3.3120   -0.0000 C   0  0  0  0  0  0  0  0  0  0  0  0
   -0.5951   -3.7907   -0.0000 C   0  0  0  0  0  0  0  0  0  0  0  0
    1.7983   -2.5746   -0.0000 C   0  0  0  0  0  0  0  0  0  0  0  0
   -0.1164   -5.2009   -0.0000 C   0  0  0  0  0  0  0  0  0  0  0  0
    2.5487   -1.2679   -0.0000 C   0  0  0  0  0  0  0  0  0  0  0  0
   -1.1126   -6.3265   -0.0000 C   0  0  0  0  0  0  0  0  0  0  0  0
    1.7983    0.0388   -0.0000 C   0  0  0  0  0  0  0  0  0  0  0  0
    4.0365   -1.2679   -0.0000 C   0  0  0  0  0  0  0  0  0  0  0  0
   -0.6339   -7.7238   -0.0000 C   0  0  0  0  0  0  0  0  0  0  0  0
   -2.6134   -6.0289   -0.0000 C   0  0  0  0  0  0  0  0  0  0  0  0
    2.5487    1.3455   -0.0000 C   0  0  0  0  0  0  0  0  0  0  0  0
    4.7740    0.0518   -0.0000 C   0  0  0  0  0  0  0  0  0  0  0  0
   -1.6172   -8.8493   -0.0000 C   0  0  0  0  0  0  0  0  0  0  0  0
   -3.5967   -7.1545   -0.0000 C   0  0  0  0  0  0  0  0  0  0  0  0
    2.0700    2.7686   -0.0000 O   0  0  0  0  0  0  0  0  0  0  0  0
    4.0236    1.3584   -0.0000 C   0  0  0  0  0  0  0  0  0  0  0  0
   -1.4361  -10.3372   -0.0000 O   0  0  0  0  0  0  0  0  0  0  0  0
   -3.1309   -8.5647   -0.0000 C   0  0  0  0  0  0  0  0  0  0  0  0
    3.2603    3.6613   -0.0000 C   0  0  0  0  0  0  0  0  0  0  0  0
    4.4635    2.7816   -0.0000 O   0  0  0  0  0  0  0  0  0  0  0  0
   -2.8204  -10.9711   -0.0000 C   0  0  0  0  0  0  0  0  0  0  0  0
   -3.8683   -9.8843   -0.0000 O   0  0  0  0  0  0  0  0  0  0  0  0
  1  2  2  0  0  0  0
  2  3  1  0  0  0  0
  2  4  1  0  0  0  0
  3  5  1  0  0  0  0
  4  6  1  0  0  0  0
  4  7  1  1  0  0  0
  6  8  1  6  0  0  0
  7  9  1  0  0  0  0
  8 10  1  0  0  0  0
  9 11  2  0  0  0  0
  9 12  1  0  0  0  0
 10 13  2  0  0  0  0
 10 14  1  0  0  0  0
 11 15  1  0  0  0  0
 12 16  2  0  0  0  0
 13 17  1  0  0  0  0
 14 18  2  0  0  0  0
 15 19  1  0  0  0  0
 15 20  2  0  0  0  0
 17 21  1  0  0  0  0
 17 22  2  0  0  0  0
 19 23  1  0  0  0  0
 20 24  1  0  0  0  0
 21 25  1  0  0  0  0
 22 26  1  0  0  0  0
  5  6  1  0  0  0  0
 16 20  1  0  0  0  0
 18 22  1  0  0  0  0
 23 24  1  0  0  0  0
 25 26  1  0  0  0  0
M  END
>  <MolRegNo>
387491

>  <m>
<

>  <Value>
25

>  <Unit>
%

>  <Type>
Inhibition

>  <Ligand Efficiency>


>  <Binding Efficiency>


>  <Surface Efficiency>


>  <Assay Index>
294022

>  <Assay Category>


>  <Assay Organism>
SARS coronavirus

>  <Target ID>
100499

>  <Target Name>
SARS coronavirus

>  <Target Organism>
SARS coronavirus

>  <Target Description>
Target is a complete organism

>  <Sequence Accession>


>  <Reference>
J. Med. Chem. 50 (17), 4087-4095 (2007)

>  <Pubmed ID>
17663539

>  <DOI>
10.1021/jm070295s

>  <InChI-Key>
DDWGQGZPYDSYEL-GJZGRUSLSA-N

>  <Molecular Formula>
C20H18O6

>  <Monoisotopic Mass>
354.110340

>  <Druglikeness>
0.19401

$$$$
Compound 85
Actelion Java MolfileCreator 1.0

 26 30  0  0  0  0  0  0  0  0999 V2000
    0.0000   -0.0000   -0.0000 O   0  0  0  0  0  0  0  0  0  0  0  0
   -0.5563   -1.3843   -0.0000 C   0  0  0  0  0  0  0  0  0  0  0  0
   -2.0053   -1.8242   -0.0000 O   0  0  0  0  0  0  0  0  0  0  0  0
    0.1682   -2.6651   -0.0000 C   0  0  0  0  0  0  0  0  0  0  0  0
   -2.0312   -3.3120   -0.0000 C   0  0  0  0  0  0  0  0  0  0  0  0
   -0.5951   -3.7907   -0.0000 C   0  0  0  0  0  0  0  0  0  0  0  0
    1.7983   -2.5746   -0.0000 C   0  0  0  0  0  0  0  0  0  0  0  0
   -0.1164   -5.2009   -0.0000 C   0  0  0  0  0  0  0  0  0  0  0  0
    2.5487   -1.2679   -0.0000 C   0  0  0  0  0  0  0  0  0  0  0  0
   -1.1126   -6.3265   -0.0000 C   0  0  0  0  0  0  0  0  0  0  0  0
    1.7983    0.0388   -0.0000 C   0  0  0  0  0  0  0  0  0  0  0  0
    4.0365   -1.2679   -0.0000 C   0  0  0  0  0  0  0  0  0  0  0  0
   -0.6339   -7.7238   -0.0000 C   0  0  0  0  0  0  0  0  0  0  0  0
   -2.6134   -6.0289   -0.0000 C   0  0  0  0  0  0  0  0  0  0  0  0
    2.5487    1.3455   -0.0000 C   0  0  0  0  0  0  0  0  0  0  0  0
    4.7740    0.0518   -0.0000 C   0  0  0  0  0  0  0  0  0  0  0  0
   -1.6172   -8.8493   -0.0000 C   0  0  0  0  0  0  0  0  0  0  0  0
   -3.5967   -7.1545   -0.0000 C   0  0  0  0  0  0  0  0  0  0  0  0
    2.0700    2.7686   -0.0000 O   0  0  0  0  0  0  0  0  0  0  0  0
    4.0236    1.3584   -0.0000 C   0  0  0  0  0  0  0  0  0  0  0  0
   -1.4361  -10.3372   -0.0000 O   0  0  0  0  0  0  0  0  0  0  0  0
   -3.1309   -8.5647   -0.0000 C   0  0  0  0  0  0  0  0  0  0  0  0
    3.2603    3.6613   -0.0000 C   0  0  0  0  0  0  0  0  0  0  0  0
    4.4635    2.7816   -0.0000 O   0  0  0  0  0  0  0  0  0  0  0  0
   -2.8204  -10.9711   -0.0000 C   0  0  0  0  0  0  0  0  0  0  0  0
   -3.8683   -9.8843   -0.0000 O   0  0  0  0  0  0  0  0  0  0  0  0
  1  2  2  0  0  0  0
  2  3  1  0  0  0  0
  2  4  1  0  0  0  0
  3  5  1  0  0  0  0
  4  6  1  0  0  0  0
  4  7  1  1  0  0  0
  6  8  1  6  0  0  0
  7  9  1  0  0  0  0
  8 10  1  0  0  0  0
  9 11  2  0  0  0  0
  9 12  1  0  0  0  0
 10 13  2  0  0  0  0
 10 14  1  0  0  0  0
 11 15  1  0  0  0  0
 12 16  2  0  0  0  0
 13 17  1  0  0  0  0
 14 18  2  0  0  0  0
 15 19  1  0  0  0  0
 15 20  2  0  0  0  0
 17 21  1  0  0  0  0
 17 22  2  0  0  0  0
 19 23  1  0  0  0  0
 20 24  1  0  0  0  0
 21 25  1  0  0  0  0
 22 26  1  0  0  0  0
  5  6  1  0  0  0  0
 16 20  1  0  0  0  0
 18 22  1  0  0  0  0
 23 24  1  0  0  0  0
 25 26  1  0  0  0  0
M  END
>  <MolRegNo>
387491

>  <m>
=

>  <Value>
25

>  <Unit>
%

>  <Type>
Inhibition

>  <Ligand Efficiency>


>  <Binding Efficiency>


>  <Surface Efficiency>


>  <Assay Index>
294023

>  <Assay Category>


>  <Assay Organism>
SARS coronavirus

>  <Target ID>
100499

>  <Target Name>
SARS coronavirus

>  <Target Organism>
SARS coronavirus

>  <Target Description>
Target is a complete organism

>  <Sequence Accession>


>  <Reference>
J. Med. Chem. 50 (17), 4087-4095 (2007)

>  <Pubmed ID>
17663539

>  <DOI>
10.1021/jm070295s

>  <InChI-Key>
DDWGQGZPYDSYEL-GJZGRUSLSA-N

>  <Molecular Formula>
C20H18O6

>  <Monoisotopic Mass>
354.110340

>  <Druglikeness>
0.19401

$$$$
Compound 86
Actelion Java MolfileCreator 1.0

 26 30  0  0  0  0  0  0  0  0999 V2000
    0.0000   -0.0000   -0.0000 O   0  0  0  0  0  0  0  0  0  0  0  0
   -0.5563   -1.3843   -0.0000 C   0  0  0  0  0  0  0  0  0  0  0  0
   -2.0053   -1.8242   -0.0000 O   0  0  0  0  0  0  0  0  0  0  0  0
    0.1682   -2.6651   -0.0000 C   0  0  0  0  0  0  0  0  0  0  0  0
   -2.0312   -3.3120   -0.0000 C   0  0  0  0  0  0  0  0  0  0  0  0
   -0.5951   -3.7907   -0.0000 C   0  0  0  0  0  0  0  0  0  0  0  0
    1.7983   -2.5746   -0.0000 C   0  0  0  0  0  0  0  0  0  0  0  0
   -0.1164   -5.2009   -0.0000 C   0  0  0  0  0  0  0  0  0  0  0  0
    2.5487   -1.2679   -0.0000 C   0  0  0  0  0  0  0  0  0  0  0  0
   -1.1126   -6.3265   -0.0000 C   0  0  0  0  0  0  0  0  0  0  0  0
    1.7983    0.0388   -0.0000 C   0  0  0  0  0  0  0  0  0  0  0  0
    4.0365   -1.2679   -0.0000 C   0  0  0  0  0  0  0  0  0  0  0  0
   -0.6339   -7.7238   -0.0000 C   0  0  0  0  0  0  0  0  0  0  0  0
   -2.6134   -6.0289   -0.0000 C   0  0  0  0  0  0  0  0  0  0  0  0
    2.5487    1.3455   -0.0000 C   0  0  0  0  0  0  0  0  0  0  0  0
    4.7740    0.0518   -0.0000 C   0  0  0  0  0  0  0  0  0  0  0  0
   -1.6172   -8.8493   -0.0000 C   0  0  0  0  0  0  0  0  0  0  0  0
   -3.5967   -7.1545   -0.0000 C   0  0  0  0  0  0  0  0  0  0  0  0
    2.0700    2.7686   -0.0000 O   0  0  0  0  0  0  0  0  0  0  0  0
    4.0236    1.3584   -0.0000 C   0  0  0  0  0  0  0  0  0  0  0  0
   -1.4361  -10.3372   -0.0000 O   0  0  0  0  0  0  0  0  0  0  0  0
   -3.1309   -8.5647   -0.0000 C   0  0  0  0  0  0  0  0  0  0  0  0
    3.2603    3.6613   -0.0000 C   0  0  0  0  0  0  0  0  0  0  0  0
    4.4635    2.7816   -0.0000 O   0  0  0  0  0  0  0  0  0  0  0  0
   -2.8204  -10.9711   -0.0000 C   0  0  0  0  0  0  0  0  0  0  0  0
   -3.8683   -9.8843   -0.0000 O   0  0  0  0  0  0  0  0  0  0  0  0
  1  2  2  0  0  0  0
  2  3  1  0  0  0  0
  2  4  1  0  0  0  0
  3  5  1  0  0  0  0
  4  6  1  0  0  0  0
  4  7  1  1  0  0  0
  6  8  1  6  0  0  0
  7  9  1  0  0  0  0
  8 10  1  0  0  0  0
  9 11  2  0  0  0  0
  9 12  1  0  0  0  0
 10 13  2  0  0  0  0
 10 14  1  0  0  0  0
 11 15  1  0  0  0  0
 12 16  2  0  0  0  0
 13 17  1  0  0  0  0
 14 18  2  0  0  0  0
 15 19  1  0  0  0  0
 15 20  2  0  0  0  0
 17 21  1  0  0  0  0
 17 22  2  0  0  0  0
 19 23  1  0  0  0  0
 20 24  1  0  0  0  0
 21 25  1  0  0  0  0
 22 26  1  0  0  0  0
  5  6  1  0  0  0  0
 16 20  1  0  0  0  0
 18 22  1  0  0  0  0
 23 24  1  0  0  0  0
 25 26  1  0  0  0  0
M  END
>  <MolRegNo>
387491

>  <m>
=

>  <Value>
25

>  <Unit>
%

>  <Type>
Inhibition

>  <Ligand Efficiency>


>  <Binding Efficiency>


>  <Surface Efficiency>


>  <Assay Index>
294024

>  <Assay Category>


>  <Assay Organism>
SARS coronavirus

>  <Target ID>
100499

>  <Target Name>
SARS coronavirus

>  <Target Organism>
SARS coronavirus

>  <Target Description>
Target is a complete organism

>  <Sequence Accession>


>  <Reference>
J. Med. Chem. 50 (17), 4087-4095 (2007)

>  <Pubmed ID>
17663539

>  <DOI>
10.1021/jm070295s

>  <InChI-Key>
DDWGQGZPYDSYEL-GJZGRUSLSA-N

>  <Molecular Formula>
C20H18O6

>  <Monoisotopic Mass>
354.110340

>  <Druglikeness>
0.19401

$$$$
Compound 87
Actelion Java MolfileCreator 1.0

 28 30  0  0  0  0  0  0  0  0999 V2000
    0.0000   -0.0000   -0.0000 Cl  0  0  0  0  0  0  0  0  0  0  0  0
    1.2922   -0.7418   -0.0000 C   0  0  0  0  0  0  0  0  0  0  0  0
    1.2802   -2.2493   -0.0000 C   0  0  0  0  0  0  0  0  0  0  0  0
    2.5843    0.0239   -0.0000 C   0  0  0  0  0  0  0  0  0  0  0  0
    2.5724   -2.9911   -0.0000 C   0  0  0  0  0  0  0  0  0  0  0  0
    3.8885   -0.7179   -0.0000 C   0  0  0  0  0  0  0  0  0  0  0  0
    3.8765   -2.2254   -0.0000 C   0  0  0  0  0  0  0  0  0  0  0  0
    5.1687   -2.9672   -0.0000 N   0  0  0  0  0  0  0  0  0  0  0  0
    6.4609   -2.2015   -0.0000 C   0  0  0  0  0  0  0  0  0  0  0  0
    6.4489   -0.6820   -0.0000 O   0  0  0  0  0  0  0  0  0  0  0  0
    7.7530   -2.9433   -0.0000 C   0  0  0  0  0  0  0  0  0  0  0  0
    9.0452   -2.1775   -0.0000 S   0  0  0  0  0  0  0  0  0  0  0  0
    7.7411   -4.4388   -0.0000 C   0  0  0  0  0  0  0  0  0  0  0  0
   10.3374   -2.9194   -0.0000 C   0  0  0  0  0  0  0  0  0  0  0  0
   11.6176   -2.1417   -0.0000 N   0  0  0  0  0  0  0  0  0  0  0  0
   10.3134   -4.4149   -0.0000 N   0  0  0  0  0  0  0  0  0  0  0  0
   12.9098   -2.8715   -0.0000 C   0  0  0  0  0  0  0  0  0  0  0  0
   11.6056   -5.1567   -0.0000 C   0  0  0  0  0  0  0  0  0  0  0  0
   14.2019   -2.0938   -0.0000 O   0  0  0  0  0  0  0  0  0  0  0  0
   12.9098   -4.3790   -0.0000 C   0  0  0  0  0  0  0  0  0  0  0  0
   11.5937   -6.6523   -0.0000 C   0  0  0  0  0  0  0  0  0  0  0  0
   14.2139   -5.1208   -0.0000 C   0  0  0  0  0  0  0  0  0  0  0  0
   10.2656   -7.3941   -0.0000 C   0  0  0  0  0  0  0  0  0  0  0  0
   12.8858   -7.3821   -0.0000 C   0  0  0  0  0  0  0  0  0  0  0  0
   15.4941   -5.8626   -0.0000 N   0  0  0  0  0  0  0  0  0  0  0  0
   10.2536   -8.8897   -0.0000 C   0  0  0  0  0  0  0  0  0  0  0  0
   12.8858   -8.8777   -0.0000 C   0  0  0  0  0  0  0  0  0  0  0  0
   11.5578   -9.6315   -0.0000 C   0  0  0  0  0  0  0  0  0  0  0  0
  1  2  1  0  0  0  0
  2  3  2  0  0  0  0
  2  4  1  0  0  0  0
  3  5  1  0  0  0  0
  4  6  2  0  0  0  0
  5  7  2  0  0  0  0
  7  8  1  0  0  0  0
  8  9  1  0  0  0  0
  9 10  2  0  0  0  0
  9 11  1  0  0  0  0
 11 12  1  0  0  0  0
 11 13  1  0  0  0  0
 12 14  1  0  0  0  0
 14 15  2  0  0  0  0
 14 16  1  0  0  0  0
 15 17  1  0  0  0  0
 16 18  2  0  0  0  0
 17 19  1  0  0  0  0
 17 20  2  0  0  0  0
 18 21  1  0  0  0  0
 20 22  1  0  0  0  0
 21 23  2  0  0  0  0
 21 24  1  0  0  0  0
 22 25  3  0  0  0  0
 23 26  1  0  0  0  0
 24 27  2  0  0  0  0
 26 28  2  0  0  0  0
  6  7  1  0  0  0  0
 18 20  1  0  0  0  0
 27 28  1  0  0  0  0
M  END
>  <MolRegNo>
348802

>  <m>
=

>  <Value>
3.3113e12

>  <Unit>
nM

>  <Type>
IC50

>  <Ligand Efficiency>


>  <Binding Efficiency>


>  <Surface Efficiency>


>  <Assay Index>
262926

>  <Assay Category>


>  <Assay Organism>
SARS coronavirus

>  <Target ID>
20012

>  <Target Name>
SARS coronavirus 3C-like proteinase

>  <Target Organism>
SARS coronavirus

>  <Target Description>
Target is a single protein chain

>  <Sequence Accession>
P0C6U8

>  <Reference>
J. Med. Chem. 49 (12), 3485-3495 (2006)

>  <Pubmed ID>
16759091

>  <DOI>
10.1021/jm050852f

>  <InChI-Key>
DGNRVGPZXZKQQS-UHFFFAOYSA-N

>  <Molecular Formula>
C20H15N4O2ClS

>  <Monoisotopic Mass>
410.060423

>  <Druglikeness>
-0.88406

$$$$
Compound 88
Actelion Java MolfileCreator 1.0

 28 30  0  0  0  0  0  0  0  0999 V2000
    0.0000   -0.0000   -0.0000 Cl  0  0  0  0  0  0  0  0  0  0  0  0
    1.2922   -0.7418   -0.0000 C   0  0  0  0  0  0  0  0  0  0  0  0
    1.2802   -2.2493   -0.0000 C   0  0  0  0  0  0  0  0  0  0  0  0
    2.5843    0.0239   -0.0000 C   0  0  0  0  0  0  0  0  0  0  0  0
    2.5724   -2.9911   -0.0000 C   0  0  0  0  0  0  0  0  0  0  0  0
    3.8885   -0.7179   -0.0000 C   0  0  0  0  0  0  0  0  0  0  0  0
    3.8765   -2.2254   -0.0000 C   0  0  0  0  0  0  0  0  0  0  0  0
    5.1687   -2.9672   -0.0000 N   0  0  0  0  0  0  0  0  0  0  0  0
    6.4609   -2.2015   -0.0000 C   0  0  0  0  0  0  0  0  0  0  0  0
    6.4489   -0.6820   -0.0000 O   0  0  0  0  0  0  0  0  0  0  0  0
    7.7530   -2.9433   -0.0000 C   0  0  0  0  0  0  0  0  0  0  0  0
    9.0452   -2.1775   -0.0000 S   0  0  0  0  0  0  0  0  0  0  0  0
    7.7411   -4.4388   -0.0000 C   0  0  0  0  0  0  0  0  0  0  0  0
   10.3374   -2.9194   -0.0000 C   0  0  0  0  0  0  0  0  0  0  0  0
   11.6176   -2.1417   -0.0000 N   0  0  0  0  0  0  0  0  0  0  0  0
   10.3134   -4.4149   -0.0000 N   0  0  0  0  0  0  0  0  0  0  0  0
   12.9098   -2.8715   -0.0000 C   0  0  0  0  0  0  0  0  0  0  0  0
   11.6056   -5.1567   -0.0000 C   0  0  0  0  0  0  0  0  0  0  0  0
   14.2019   -2.0938   -0.0000 O   0  0  0  0  0  0  0  0  0  0  0  0
   12.9098   -4.3790   -0.0000 C   0  0  0  0  0  0  0  0  0  0  0  0
   11.5937   -6.6523   -0.0000 C   0  0  0  0  0  0  0  0  0  0  0  0
   14.2139   -5.1208   -0.0000 C   0  0  0  0  0  0  0  0  0  0  0  0
   10.2656   -7.3941   -0.0000 C   0  0  0  0  0  0  0  0  0  0  0  0
   12.8858   -7.3821   -0.0000 C   0  0  0  0  0  0  0  0  0  0  0  0
   15.4941   -5.8626   -0.0000 N   0  0  0  0  0  0  0  0  0  0  0  0
   10.2536   -8.8897   -0.0000 C   0  0  0  0  0  0  0  0  0  0  0  0
   12.8858   -8.8777   -0.0000 C   0  0  0  0  0  0  0  0  0  0  0  0
   11.5578   -9.6315   -0.0000 C   0  0  0  0  0  0  0  0  0  0  0  0
  1  2  1  0  0  0  0
  2  3  2  0  0  0  0
  2  4  1  0  0  0  0
  3  5  1  0  0  0  0
  4  6  2  0  0  0  0
  5  7  2  0  0  0  0
  7  8  1  0  0  0  0
  8  9  1  0  0  0  0
  9 10  2  0  0  0  0
  9 11  1  0  0  0  0
 11 12  1  0  0  0  0
 11 13  1  0  0  0  0
 12 14  1  0  0  0  0
 14 15  2  0  0  0  0
 14 16  1  0  0  0  0
 15 17  1  0  0  0  0
 16 18  2  0  0  0  0
 17 19  1  0  0  0  0
 17 20  2  0  0  0  0
 18 21  1  0  0  0  0
 20 22  1  0  0  0  0
 21 23  2  0  0  0  0
 21 24  1  0  0  0  0
 22 25  3  0  0  0  0
 23 26  1  0  0  0  0
 24 27  2  0  0  0  0
 26 28  2  0  0  0  0
  6  7  1  0  0  0  0
 18 20  1  0  0  0  0
 27 28  1  0  0  0  0
M  END
>  <MolRegNo>
348802

>  <m>
=

>  <Value>
3.0e5

>  <Unit>
nM

>  <Type>
IC50

>  <Ligand Efficiency>


>  <Binding Efficiency>


>  <Surface Efficiency>


>  <Assay Index>
262926

>  <Assay Category>


>  <Assay Organism>
SARS coronavirus

>  <Target ID>
20012

>  <Target Name>
SARS coronavirus 3C-like proteinase

>  <Target Organism>
SARS coronavirus

>  <Target Description>
Target is a single protein chain

>  <Sequence Accession>
P0C6U8

>  <Reference>
J. Med. Chem. 49 (12), 3485-3495 (2006)

>  <Pubmed ID>
16759091

>  <DOI>
10.1021/jm050852f

>  <InChI-Key>
DGNRVGPZXZKQQS-UHFFFAOYSA-N

>  <Molecular Formula>
C20H15N4O2ClS

>  <Monoisotopic Mass>
410.060423

>  <Druglikeness>
-0.88406

$$$$
Compound 89
Actelion Java MolfileCreator 1.0

 34 37  0  0  0  0  0  0  0  0999 V2000
    0.0000   -0.0000   -0.0000 S   0  0  0  0  0  0  0  0  0  0  0  0
    0.0236    1.4991   -0.0000 C   0  0  0  0  0  0  0  0  0  0  0  0
    1.3929   -0.4958   -0.0000 C   0  0  0  0  0  0  0  0  0  0  0  0
    1.4519    1.9359   -0.0000 C   0  0  0  0  0  0  0  0  0  0  0  0
   -1.2749    2.2664   -0.0000 C   0  0  0  0  0  0  0  0  0  0  0  0
    2.2900    0.6965   -0.0000 N   0  0  0  0  0  0  0  0  0  0  0  0
    1.8061   -1.9241   -0.0000 C   0  0  0  0  0  0  0  0  0  0  0  0
    1.9359    3.3524   -0.0000 C   0  0  0  0  0  0  0  0  0  0  0  0
   -1.2867    3.7774   -0.0000 O   0  0  0  0  0  0  0  0  0  0  0  0
   -2.5851    1.5346   -0.0000 C   0  0  0  0  0  0  0  0  0  0  0  0
   -3.0573    0.1298   -0.0000 C   0  0  0  0  0  0  0  0  0  0  0  0
   -3.8128    2.4317   -0.0000 C   0  0  0  0  0  0  0  0  0  0  0  0
   -2.1956   -1.0742   -0.0000 O   0  0  0  0  0  0  0  0  0  0  0  0
   -4.5682    0.1417   -0.0000 C   0  0  0  0  0  0  0  0  0  0  0  0
   -5.0286    1.5582   -0.0000 N   0  0  0  0  0  0  0  0  0  0  0  0
   -3.8246    3.9426   -0.0000 C   0  0  0  0  0  0  0  0  0  0  0  0
   -5.4654   -1.0506   -0.0000 O   0  0  0  0  0  0  0  0  0  0  0  0
   -6.3389    2.3136   -0.0000 C   0  0  0  0  0  0  0  0  0  0  0  0
   -5.1230    4.6981   -0.0000 C   0  0  0  0  0  0  0  0  0  0  0  0
   -2.5379    4.6981   -0.0000 C   0  0  0  0  0  0  0  0  0  0  0  0
   -7.6492    1.5818   -0.0000 C   0  0  0  0  0  0  0  0  0  0  0  0
   -5.1467    6.1972   -0.0000 C   0  0  0  0  0  0  0  0  0  0  0  0
   -2.5497    6.2090   -0.0000 C   0  0  0  0  0  0  0  0  0  0  0  0
   -8.9594    2.3372   -0.0000 C   0  0  0  0  0  0  0  0  0  0  0  0
   -6.4569    6.9527   -0.0000 N   0  0  0  0  0  0  0  0  0  0  0  0
   -3.8600    6.9645   -0.0000 C   0  0  0  0  0  0  0  0  0  0  0  0
  -10.2697    1.6054   -0.0000 N   0  0  0  0  0  0  0  0  0  0  0  0
   -7.7672    6.2090   -0.0000 O   0  0  0  0  0  0  0  0  0  0  0  0
   -6.4805    8.4637   -0.0000 O   0  0  0  0  0  0  0  0  0  0  0  0
  -11.5682    2.3609   -0.0000 C   0  0  0  0  0  0  0  0  0  0  0  0
  -10.2697    0.1180   -0.0000 C   0  0  0  0  0  0  0  0  0  0  0  0
  -12.8666    1.6290   -0.0000 C   0  0  0  0  0  0  0  0  0  0  0  0
  -11.5800   -0.6138   -0.0000 C   0  0  0  0  0  0  0  0  0  0  0  0
  -12.8903    0.1417   -0.0000 O   0  0  0  0  0  0  0  0  0  0  0  0
  1  2  1  0  0  0  0
  1  3  1  0  0  0  0
  2  4  2  0  0  0  0
  2  5  1  0  0  0  0
  3  6  2  0  0  0  0
  3  7  1  0  0  0  0
  4  8  1  0  0  0  0
  5  9  2  0  0  0  0
  5 10  1  0  0  0  0
 10 11  2  0  0  0  0
 10 12  1  0  0  0  0
 11 13  1  0  0  0  0
 11 14  1  0  0  0  0
 12 15  1  0  0  0  0
 12 16  1  0  0  0  0
 14 17  2  0  0  0  0
 15 18  1  0  0  0  0
 16 19  2  0  0  0  0
 16 20  1  0  0  0  0
 18 21  1  0  0  0  0
 19 22  1  0  0  0  0
 20 23  2  0  0  0  0
 21 24  1  0  0  0  0
 22 25  1  0  0  0  0
 22 26  2  0  0  0  0
 24 27  1  0  0  0  0
 25 28  2  0  0  0  0
 25 29  1  0  0  0  0
 27 30  1  0  0  0  0
 27 31  1  0  0  0  0
 30 32  1  0  0  0  0
 31 33  1  0  0  0  0
 32 34  1  0  0  0  0
  4  6  1  0  0  0  0
 14 15  1  0  0  0  0
 23 26  1  0  0  0  0
 33 34  1  0  0  0  0
M  CHG  2  25   1  29  -1
M  END
>  <MolRegNo>
1145370

>  <m>
=

>  <Value>
101380

>  <Unit>
nM

>  <Type>
IC50

>  <Ligand Efficiency>


>  <Binding Efficiency>


>  <Surface Efficiency>


>  <Assay Index>
589666

>  <Assay Category>


>  <Assay Organism>
SARS coronavirus

>  <Target ID>
101075

>  <Target Name>
Replicase polyprotein 1ab

>  <Target Organism>
SARS coronavirus

>  <Target Description>
Target is a single protein chain

>  <Sequence Accession>
P0C6X7

>  <Reference>
Bioorg. Med. Chem. Lett. 21 (10), 3088-3091 (2011)

>  <Pubmed ID>
21470860

>  <DOI>
10.1016/j.bmcl.2011.03.034

>  <InChI-Key>
DHALZBQVKROERD-UHFFFAOYSA-N

>  <Molecular Formula>
C23H26N4O6S

>  <Monoisotopic Mass>
486.157306

>  <Druglikeness>
1.1315

$$$$
Compound 90
Actelion Java MolfileCreator 1.0

 34 37  0  0  0  0  0  0  0  0999 V2000
    0.0000   -0.0000   -0.0000 S   0  0  0  0  0  0  0  0  0  0  0  0
    0.0236    1.4991   -0.0000 C   0  0  0  0  0  0  0  0  0  0  0  0
    1.3929   -0.4958   -0.0000 C   0  0  0  0  0  0  0  0  0  0  0  0
    1.4519    1.9359   -0.0000 C   0  0  0  0  0  0  0  0  0  0  0  0
   -1.2749    2.2664   -0.0000 C   0  0  0  0  0  0  0  0  0  0  0  0
    2.2900    0.6965   -0.0000 N   0  0  0  0  0  0  0  0  0  0  0  0
    1.8061   -1.9241   -0.0000 C   0  0  0  0  0  0  0  0  0  0  0  0
    1.9359    3.3524   -0.0000 C   0  0  0  0  0  0  0  0  0  0  0  0
   -1.2867    3.7774   -0.0000 O   0  0  0  0  0  0  0  0  0  0  0  0
   -2.5851    1.5346   -0.0000 C   0  0  0  0  0  0  0  0  0  0  0  0
   -3.0573    0.1298   -0.0000 C   0  0  0  0  0  0  0  0  0  0  0  0
   -3.8128    2.4317   -0.0000 C   0  0  0  0  0  0  0  0  0  0  0  0
   -2.1956   -1.0742   -0.0000 O   0  0  0  0  0  0  0  0  0  0  0  0
   -4.5682    0.1417   -0.0000 C   0  0  0  0  0  0  0  0  0  0  0  0
   -5.0286    1.5582   -0.0000 N   0  0  0  0  0  0  0  0  0  0  0  0
   -3.8246    3.9426   -0.0000 C   0  0  0  0  0  0  0  0  0  0  0  0
   -5.4654   -1.0506   -0.0000 O   0  0  0  0  0  0  0  0  0  0  0  0
   -6.3389    2.3136   -0.0000 C   0  0  0  0  0  0  0  0  0  0  0  0
   -5.1230    4.6981   -0.0000 C   0  0  0  0  0  0  0  0  0  0  0  0
   -2.5379    4.6981   -0.0000 C   0  0  0  0  0  0  0  0  0  0  0  0
   -7.6492    1.5818   -0.0000 C   0  0  0  0  0  0  0  0  0  0  0  0
   -5.1467    6.1972   -0.0000 C   0  0  0  0  0  0  0  0  0  0  0  0
   -2.5497    6.2090   -0.0000 C   0  0  0  0  0  0  0  0  0  0  0  0
   -8.9594    2.3372   -0.0000 C   0  0  0  0  0  0  0  0  0  0  0  0
   -6.4569    6.9527   -0.0000 N   0  0  0  0  0  0  0  0  0  0  0  0
   -3.8600    6.9645   -0.0000 C   0  0  0  0  0  0  0  0  0  0  0  0
  -10.2697    1.6054   -0.0000 N   0  0  0  0  0  0  0  0  0  0  0  0
   -7.7672    6.2090   -0.0000 O   0  0  0  0  0  0  0  0  0  0  0  0
   -6.4805    8.4637   -0.0000 O   0  0  0  0  0  0  0  0  0  0  0  0
  -11.5682    2.3609   -0.0000 C   0  0  0  0  0  0  0  0  0  0  0  0
  -10.2697    0.1180   -0.0000 C   0  0  0  0  0  0  0  0  0  0  0  0
  -12.8666    1.6290   -0.0000 C   0  0  0  0  0  0  0  0  0  0  0  0
  -11.5800   -0.6138   -0.0000 C   0  0  0  0  0  0  0  0  0  0  0  0
  -12.8903    0.1417   -0.0000 O   0  0  0  0  0  0  0  0  0  0  0  0
  1  2  1  0  0  0  0
  1  3  1  0  0  0  0
  2  4  2  0  0  0  0
  2  5  1  0  0  0  0
  3  6  2  0  0  0  0
  3  7  1  0  0  0  0
  4  8  1  0  0  0  0
  5  9  2  0  0  0  0
  5 10  1  0  0  0  0
 10 11  2  0  0  0  0
 10 12  1  0  0  0  0
 11 13  1  0  0  0  0
 11 14  1  0  0  0  0
 12 15  1  0  0  0  0
 12 16  1  0  0  0  0
 14 17  2  0  0  0  0
 15 18  1  0  0  0  0
 16 19  2  0  0  0  0
 16 20  1  0  0  0  0
 18 21  1  0  0  0  0
 19 22  1  0  0  0  0
 20 23  2  0  0  0  0
 21 24  1  0  0  0  0
 22 25  1  0  0  0  0
 22 26  2  0  0  0  0
 24 27  1  0  0  0  0
 25 28  2  0  0  0  0
 25 29  1  0  0  0  0
 27 30  1  0  0  0  0
 27 31  1  0  0  0  0
 30 32  1  0  0  0  0
 31 33  1  0  0  0  0
 32 34  1  0  0  0  0
  4  6  1  0  0  0  0
 14 15  1  0  0  0  0
 23 26  1  0  0  0  0
 33 34  1  0  0  0  0
M  CHG  2  25   1  29  -1
M  END
>  <MolRegNo>
1145370

>  <m>
=

>  <Value>
49.14

>  <Unit>
%

>  <Type>
Inhibition

>  <Ligand Efficiency>


>  <Binding Efficiency>


>  <Surface Efficiency>


>  <Assay Index>
589665

>  <Assay Category>


>  <Assay Organism>
SARS coronavirus

>  <Target ID>
101075

>  <Target Name>
Replicase polyprotein 1ab

>  <Target Organism>
SARS coronavirus

>  <Target Description>
Target is a single protein chain

>  <Sequence Accession>
P0C6X7

>  <Reference>
Bioorg. Med. Chem. Lett. 21 (10), 3088-3091 (2011)

>  <Pubmed ID>
21470860

>  <DOI>
10.1016/j.bmcl.2011.03.034

>  <InChI-Key>
DHALZBQVKROERD-UHFFFAOYSA-N

>  <Molecular Formula>
C23H26N4O6S

>  <Monoisotopic Mass>
486.157306

>  <Druglikeness>
1.1315

$$$$
Compound 91
Actelion Java MolfileCreator 1.0

 23 25  0  0  0  0  0  0  0  0999 V2000
    0.0000   -0.0000   -0.0000 Cl  0  0  0  0  0  0  0  0  0  0  0  0
   -1.2970    0.7664   -0.0000 C   0  0  0  0  0  0  0  0  0  0  0  0
   -1.2970    2.2756   -0.0000 C   0  0  0  0  0  0  0  0  0  0  0  0
   -2.6058    0.0354   -0.0000 C   0  0  0  0  0  0  0  0  0  0  0  0
   -2.6058    3.0420   -0.0000 N   0  0  0  0  0  0  0  0  0  0  0  0
   -3.9027    0.8018   -0.0000 C   0  0  0  0  0  0  0  0  0  0  0  0
   -3.9145    2.3110   -0.0000 C   0  0  0  0  0  0  0  0  0  0  0  0
   -5.2115    0.0707   -0.0000 O   0  0  0  0  0  0  0  0  0  0  0  0
   -6.5203    0.8371   -0.0000 C   0  0  0  0  0  0  0  0  0  0  0  0
   -6.5203    2.3464   -0.0000 O   0  0  0  0  0  0  0  0  0  0  0  0
   -7.8291    0.1061   -0.0000 C   0  0  0  0  0  0  0  0  0  0  0  0
   -7.8526   -1.3795   -0.0000 N   0  0  0  0  0  0  0  0  0  0  0  0
   -9.1378    0.8725   -0.0000 C   0  0  0  0  0  0  0  0  0  0  0  0
   -6.5675   -2.1223   -0.0000 C   0  0  0  0  0  0  0  0  0  0  0  0
   -9.1614   -2.1105   -0.0000 C   0  0  0  0  0  0  0  0  0  0  0  0
  -10.4466    0.1415   -0.0000 C   0  0  0  0  0  0  0  0  0  0  0  0
   -5.2823   -1.3677   -0.0000 O   0  0  0  0  0  0  0  0  0  0  0  0
   -6.5910   -3.6080   -0.0000 C   0  0  0  0  0  0  0  0  0  0  0  0
  -10.4584   -1.3441   -0.0000 C   0  0  0  0  0  0  0  0  0  0  0  0
  -11.7436    0.9079   -0.0000 C   0  0  0  0  0  0  0  0  0  0  0  0
  -11.7554   -2.0752   -0.0000 C   0  0  0  0  0  0  0  0  0  0  0  0
  -13.0406    0.1651   -0.0000 C   0  0  0  0  0  0  0  0  0  0  0  0
  -13.0524   -1.3206   -0.0000 C   0  0  0  0  0  0  0  0  0  0  0  0
  1  2  1  0  0  0  0
  2  3  2  0  0  0  0
  2  4  1  0  0  0  0
  3  5  1  0  0  0  0
  4  6  2  0  0  0  0
  5  7  2  0  0  0  0
  6  8  1  0  0  0  0
  8  9  1  0  0  0  0
  9 10  2  0  0  0  0
 11  9  1  1  0  0  0
 11 12  1  0  0  0  0
 11 13  1  0  0  0  0
 12 14  1  0  0  0  0
 12 15  1  0  0  0  0
 13 16  1  0  0  0  0
 14 17  2  0  0  0  0
 14 18  1  0  0  0  0
 15 19  1  0  0  0  0
 16 20  1  0  0  0  0
 19 21  1  0  0  0  0
 20 22  2  0  0  0  0
 21 23  2  0  0  0  0
  6  7  1  0  0  0  0
 16 19  2  0  0  0  0
 22 23  1  0  0  0  0
M  END
>  <MolRegNo>
493037

>  <m>
=

>  <Value>
140

>  <Unit>
nM

>  <Type>
IC50

>  <Ligand Efficiency>


>  <Binding Efficiency>


>  <Surface Efficiency>


>  <Assay Index>
341535

>  <Assay Category>


>  <Assay Organism>
SARS coronavirus

>  <Target ID>
100499

>  <Target Name>
SARS coronavirus

>  <Target Organism>
SARS coronavirus

>  <Target Description>
Target is a complete organism

>  <Sequence Accession>


>  <Reference>
Bioorg. Med. Chem. Lett. 18 (20), 5684-5688 (2008)

>  <Pubmed ID>
18796354

>  <DOI>
10.1016/j.bmcl.2008.08.082

>  <InChI-Key>
DHEPUAXVQWBJND-INIZCTEOSA-N

>  <Molecular Formula>
C17H15N2O3Cl

>  <Monoisotopic Mass>
330.077120

>  <Druglikeness>
4.0428

$$$$
Compound 92
Actelion Java MolfileCreator 1.0

 23 24  0  0  1  0  0  0  0  0999 V2000
    0.0000   -0.0000   -0.0000 O   0  0  0  0  0  0  0  0  0  0  0  0
   -0.0118    1.5165   -0.0000 C   0  0  0  0  0  0  0  0  0  0  0  0
    1.2796    2.2748   -0.0000 N   0  0  0  0  0  0  0  0  0  0  0  0
   -1.3270    2.2866   -0.0000 C   0  0  0  0  0  0  0  0  0  0  0  0
    2.5591    1.5402   -0.0000 C   0  0  0  0  0  0  0  0  0  0  0  0
   -2.0852    3.6017   -0.0000 N   0  0  0  0  0  0  0  0  0  0  0  0
   -2.8435    2.2985   -0.0000 C   0  0  0  0  0  0  0  0  0  0  0  0
    3.8505    2.2985   -0.0000 C   0  0  0  0  0  0  0  0  0  0  0  0
    2.5473    0.0474   -0.0000 C   0  0  0  0  0  0  0  0  0  0  0  0
   -2.0971    5.1182   -0.0000 C   0  0  0  0  0  0  0  0  0  0  0  0
    3.8387    3.8150   -0.0000 O   0  0  0  0  0  0  0  0  0  0  0  0
    5.1419    1.5521   -0.0000 O   0  0  0  0  0  0  0  0  0  0  0  0
    3.8387   -0.6872   -0.0000 C   0  0  0  0  0  0  0  0  0  0  0  0
   -0.8056    5.8765   -0.0000 C   0  0  0  0  0  0  0  0  0  0  0  0
    6.4334    2.3103   -0.0000 C   0  0  0  0  0  0  0  0  0  0  0  0
    3.8268   -2.1800   -0.0000 C   0  0  0  0  0  0  0  0  0  0  0  0
    5.1301    0.0711   -0.0000 C   0  0  0  0  0  0  0  0  0  0  0  0
   -0.8175    7.3930   -0.0000 O   0  0  0  0  0  0  0  0  0  0  0  0
    0.4858    5.1419   -0.0000 O   0  0  0  0  0  0  0  0  0  0  0  0
    5.1182   -2.9146   -0.0000 C   0  0  0  0  0  0  0  0  0  0  0  0
    6.4215   -0.6635   -0.0000 C   0  0  0  0  0  0  0  0  0  0  0  0
    1.7772    5.9120   -0.0000 C   0  0  0  0  0  0  0  0  0  0  0  0
    6.3978   -2.1563   -0.0000 C   0  0  0  0  0  0  0  0  0  0  0  0
  1  2  2  0  0  0  0
  2  3  1  0  0  0  0
  2  4  1  0  0  0  0
  5  3  1  6  0  0  0
  4  6  1  0  0  0  0
  4  7  1  0  0  0  0
  5  8  1  0  0  0  0
  5  9  1  0  0  0  0
  6 10  1  0  0  0  0
  8 11  2  0  0  0  0
  8 12  1  0  0  0  0
  9 13  1  0  0  0  0
 10 14  1  0  0  0  0
 12 15  1  0  0  0  0
 13 16  2  0  0  0  0
 13 17  1  0  0  0  0
 14 18  2  0  0  0  0
 14 19  1  0  0  0  0
 16 20  1  0  0  0  0
 17 21  2  0  0  0  0
 19 22  1  0  0  0  0
 20 23  2  0  0  0  0
  6  7  1  0  0  0  0
 21 23  1  0  0  0  0
M  END
>  <MolRegNo>
333679

>  <m>
<

>  <Value>
10

>  <Unit>
%

>  <Type>
Inhibition

>  <Ligand Efficiency>


>  <Binding Efficiency>


>  <Surface Efficiency>


>  <Assay Index>
254534

>  <Assay Category>


>  <Assay Organism>
SARS coronavirus

>  <Target ID>
20012

>  <Target Name>
SARS coronavirus 3C-like proteinase

>  <Target Organism>
SARS coronavirus

>  <Target Description>
Target is a single protein chain

>  <Sequence Accession>
P0C6U8

>  <Reference>
Bioorg. Med. Chem. Lett. 15 (24), 5365-5369 (2005)

>  <Pubmed ID>
16216498

>  <DOI>
10.1016/j.bmcl.2005.09.012

>  <InChI-Key>
DHPRPYBVASOMNS-ZVLZOBCMSA-N

>  <Molecular Formula>
C16H20N2O5

>  <Monoisotopic Mass>
320.137223

>  <Druglikeness>
2.5394

$$$$
Compound 93
Actelion Java MolfileCreator 1.0

 42 44  0  0  1  0  0  0  0  0999 V2000
    0.0000   -0.0000   -0.0000 O   0  0  0  0  0  0  0  0  0  0  0  0
    1.0995    1.0039   -0.0000 C   0  0  0  0  0  0  0  0  0  0  0  0
    2.5455    0.7051   -0.0000 N   0  0  0  0  0  0  0  0  0  0  0  0
    0.9322    2.4977   -0.0000 C   0  0  0  0  0  0  0  0  0  0  0  0
    3.2864    2.0077   -0.0000 C   0  0  0  0  0  0  0  0  0  0  0  0
    2.2826    3.1191   -0.0000 C   0  0  0  0  0  0  0  0  0  0  0  0
   -0.3824    3.2625   -0.0000 C   0  0  0  0  0  0  0  0  0  0  0  0
   -0.3944    4.7683   -0.0000 C   0  0  0  0  0  0  0  0  0  0  0  0
   -1.6970    5.5332   -0.0000 N   0  0  0  0  0  0  0  0  0  0  0  0
    0.8963    5.5332   -0.0000 C   0  0  0  0  0  0  0  0  0  0  0  0
   -3.0116    4.7922   -0.0000 C   0  0  0  0  0  0  0  0  0  0  0  0
    0.8844    7.0390   -0.0000 C   0  0  0  0  0  0  0  0  0  0  0  0
   -3.0235    3.3104   -0.0000 O   0  0  0  0  0  0  0  0  0  0  0  0
   -4.3142    5.5571   -0.0000 C   0  0  0  0  0  0  0  0  0  0  0  0
    2.1631    7.8038   -0.0000 C   0  0  0  0  0  0  0  0  0  0  0  0
   -4.3262    7.0629   -0.0000 C   0  0  0  0  0  0  0  0  0  0  0  0
   -5.6168    4.8161   -0.0000 C   0  0  0  0  0  0  0  0  0  0  0  0
    2.1511    9.3096   -0.0000 O   0  0  0  0  0  0  0  0  0  0  0  0
    3.4418    7.0629   -0.0000 O   0  0  0  0  0  0  0  0  0  0  0  0
   -3.5852    8.3775   -0.0000 C   0  0  0  0  0  0  0  0  0  0  0  0
   -6.9195    5.5810   -0.0000 C   0  0  0  0  0  0  0  0  0  0  0  0
    4.7205    7.8277   -0.0000 C   0  0  0  0  0  0  0  0  0  0  0  0
   -4.3620    9.6801   -0.0000 C   0  0  0  0  0  0  0  0  0  0  0  0
   -2.1033    8.4133   -0.0000 C   0  0  0  0  0  0  0  0  0  0  0  0
   -6.9314    7.0868   -0.0000 O   0  0  0  0  0  0  0  0  0  0  0  0
   -8.2340    4.8400   -0.0000 C   0  0  0  0  0  0  0  0  0  0  0  0
    6.0112    7.0868   -0.0000 C   0  0  0  0  0  0  0  0  0  0  0  0
   -3.6450   10.9947   -0.0000 C   0  0  0  0  0  0  0  0  0  0  0  0
   -1.3743    9.7279   -0.0000 C   0  0  0  0  0  0  0  0  0  0  0  0
   -9.5367    5.6049   -0.0000 N   0  0  0  0  0  0  0  0  0  0  0  0
   -8.2460    3.3582   -0.0000 C   0  0  0  0  0  0  0  0  0  0  0  0
   -2.1392   11.0305   -0.0000 C   0  0  0  0  0  0  0  0  0  0  0  0
  -10.8393    4.8639   -0.0000 C   0  0  0  0  0  0  0  0  0  0  0  0
   -9.5486    2.6172   -0.0000 C   0  0  0  0  0  0  0  0  0  0  0  0
   -6.9553    2.6172   -0.0000 C   0  0  0  0  0  0  0  0  0  0  0  0
  -10.8513    3.3821   -0.0000 O   0  0  0  0  0  0  0  0  0  0  0  0
  -12.1539    5.6288   -0.0000 C   0  0  0  0  0  0  0  0  0  0  0  0
  -12.3212    7.1346   -0.0000 N   0  0  0  0  0  0  0  0  0  0  0  0
  -13.5282    5.0432   -0.0000 C   0  0  0  0  0  0  0  0  0  0  0  0
  -13.7792    7.4573   -0.0000 O   0  0  0  0  0  0  0  0  0  0  0  0
  -14.5321    6.1666   -0.0000 C   0  0  0  0  0  0  0  0  0  0  0  0
  -16.0379    6.0232   -0.0000 C   0  0  0  0  0  0  0  0  0  0  0  0
  1  2  2  0  0  0  0
  2  3  1  0  0  0  0
  2  4  1  0  0  0  0
  3  5  1  0  0  0  0
  4  6  1  0  0  0  0
  4  7  1  6  0  0  0
  7  8  1  0  0  0  0
  8  9  1  6  0  0  0
  8 10  1  0  0  0  0
  9 11  1  0  0  0  0
 10 12  2  0  0  0  0
 11 13  2  0  0  0  0
 11 14  1  0  0  0  0
 12 15  1  0  0  0  0
 14 16  1  1  0  0  0
 14 17  1  0  0  0  0
 15 18  2  0  0  0  0
 15 19  1  0  0  0  0
 16 20  1  0  0  0  0
 17 21  1  0  0  0  0
 19 22  1  0  0  0  0
 20 23  2  0  0  0  0
 20 24  1  0  0  0  0
 21 25  2  0  0  0  0
 21 26  1  0  0  0  0
 22 27  1  0  0  0  0
 23 28  1  0  0  0  0
 24 29  2  0  0  0  0
 26 30  1  6  0  0  0
 26 31  1  0  0  0  0
 28 32  2  0  0  0  0
 30 33  1  0  0  0  0
 31 34  1  0  0  0  0
 31 35  1  0  0  0  0
 33 36  2  0  0  0  0
 33 37  1  0  0  0  0
 37 38  2  0  0  0  0
 37 39  1  0  0  0  0
 38 40  1  0  0  0  0
 39 41  2  0  0  0  0
 41 42  1  0  0  0  0
  5  6  1  0  0  0  0
 29 32  1  0  0  0  0
 40 41  1  0  0  0  0
M  END
>  <MolRegNo>
329385

>  <m>
=

>  <Value>
45000

>  <Unit>
nM

>  <Type>
IC50

>  <Ligand Efficiency>
0.14

>  <Binding Efficiency>
7.49

>  <Surface Efficiency>
2.77

>  <Assay Index>
251881

>  <Assay Category>


>  <Assay Organism>
Carona virus

>  <Target ID>
20012

>  <Target Name>
SARS coronavirus 3C-like proteinase

>  <Target Organism>
SARS coronavirus

>  <Target Description>
Target is a single protein chain

>  <Sequence Accession>
P0C6U8

>  <Reference>
J. Med. Chem. 48 (22), 6767-6771 (2005)

>  <Pubmed ID>
16250632

>  <DOI>
10.1021/jm050548m

>  <InChI-Key>
DHTSLDPANDNYNQ-KVOKEACQSA-N

>  <Molecular Formula>
C31H40N4O7

>  <Monoisotopic Mass>
580.289701

>  <Druglikeness>
-2.5778

$$$$
Compound 94
Actelion Java MolfileCreator 1.0

 42 44  0  0  1  0  0  0  0  0999 V2000
    0.0000   -0.0000   -0.0000 O   0  0  0  0  0  0  0  0  0  0  0  0
    1.0995    1.0039   -0.0000 C   0  0  0  0  0  0  0  0  0  0  0  0
    2.5455    0.7051   -0.0000 N   0  0  0  0  0  0  0  0  0  0  0  0
    0.9322    2.4977   -0.0000 C   0  0  0  0  0  0  0  0  0  0  0  0
    3.2864    2.0077   -0.0000 C   0  0  0  0  0  0  0  0  0  0  0  0
    2.2826    3.1191   -0.0000 C   0  0  0  0  0  0  0  0  0  0  0  0
   -0.3824    3.2625   -0.0000 C   0  0  0  0  0  0  0  0  0  0  0  0
   -0.3944    4.7683   -0.0000 C   0  0  0  0  0  0  0  0  0  0  0  0
   -1.6970    5.5332   -0.0000 N   0  0  0  0  0  0  0  0  0  0  0  0
    0.8963    5.5332   -0.0000 C   0  0  0  0  0  0  0  0  0  0  0  0
   -3.0116    4.7922   -0.0000 C   0  0  0  0  0  0  0  0  0  0  0  0
    0.8844    7.0390   -0.0000 C   0  0  0  0  0  0  0  0  0  0  0  0
   -3.0235    3.3104   -0.0000 O   0  0  0  0  0  0  0  0  0  0  0  0
   -4.3142    5.5571   -0.0000 C   0  0  0  0  0  0  0  0  0  0  0  0
    2.1631    7.8038   -0.0000 C   0  0  0  0  0  0  0  0  0  0  0  0
   -4.3262    7.0629   -0.0000 C   0  0  0  0  0  0  0  0  0  0  0  0
   -5.6168    4.8161   -0.0000 C   0  0  0  0  0  0  0  0  0  0  0  0
    2.1511    9.3096   -0.0000 O   0  0  0  0  0  0  0  0  0  0  0  0
    3.4418    7.0629   -0.0000 O   0  0  0  0  0  0  0  0  0  0  0  0
   -3.5852    8.3775   -0.0000 C   0  0  0  0  0  0  0  0  0  0  0  0
   -6.9195    5.5810   -0.0000 C   0  0  0  0  0  0  0  0  0  0  0  0
    4.7205    7.8277   -0.0000 C   0  0  0  0  0  0  0  0  0  0  0  0
   -4.3620    9.6801   -0.0000 C   0  0  0  0  0  0  0  0  0  0  0  0
   -2.1033    8.4133   -0.0000 C   0  0  0  0  0  0  0  0  0  0  0  0
   -6.9314    7.0868   -0.0000 O   0  0  0  0  0  0  0  0  0  0  0  0
   -8.2340    4.8400   -0.0000 C   0  0  0  0  0  0  0  0  0  0  0  0
    6.0112    7.0868   -0.0000 C   0  0  0  0  0  0  0  0  0  0  0  0
   -3.6450   10.9947   -0.0000 C   0  0  0  0  0  0  0  0  0  0  0  0
   -1.3743    9.7279   -0.0000 C   0  0  0  0  0  0  0  0  0  0  0  0
   -9.5367    5.6049   -0.0000 N   0  0  0  0  0  0  0  0  0  0  0  0
   -8.2460    3.3582   -0.0000 C   0  0  0  0  0  0  0  0  0  0  0  0
   -2.1392   11.0305   -0.0000 C   0  0  0  0  0  0  0  0  0  0  0  0
  -10.8393    4.8639   -0.0000 C   0  0  0  0  0  0  0  0  0  0  0  0
   -9.5486    2.6172   -0.0000 C   0  0  0  0  0  0  0  0  0  0  0  0
   -6.9553    2.6172   -0.0000 C   0  0  0  0  0  0  0  0  0  0  0  0
  -10.8513    3.3821   -0.0000 O   0  0  0  0  0  0  0  0  0  0  0  0
  -12.1539    5.6288   -0.0000 C   0  0  0  0  0  0  0  0  0  0  0  0
  -12.3212    7.1346   -0.0000 N   0  0  0  0  0  0  0  0  0  0  0  0
  -13.5282    5.0432   -0.0000 C   0  0  0  0  0  0  0  0  0  0  0  0
  -13.7792    7.4573   -0.0000 O   0  0  0  0  0  0  0  0  0  0  0  0
  -14.5321    6.1666   -0.0000 C   0  0  0  0  0  0  0  0  0  0  0  0
  -16.0379    6.0232   -0.0000 C   0  0  0  0  0  0  0  0  0  0  0  0
  1  2  2  0  0  0  0
  2  3  1  0  0  0  0
  2  4  1  0  0  0  0
  3  5  1  0  0  0  0
  4  6  1  0  0  0  0
  4  7  1  6  0  0  0
  7  8  1  0  0  0  0
  8  9  1  6  0  0  0
  8 10  1  0  0  0  0
  9 11  1  0  0  0  0
 10 12  2  0  0  0  0
 11 13  2  0  0  0  0
 11 14  1  0  0  0  0
 12 15  1  0  0  0  0
 14 16  1  1  0  0  0
 14 17  1  0  0  0  0
 15 18  2  0  0  0  0
 15 19  1  0  0  0  0
 16 20  1  0  0  0  0
 17 21  1  0  0  0  0
 19 22  1  0  0  0  0
 20 23  2  0  0  0  0
 20 24  1  0  0  0  0
 21 25  2  0  0  0  0
 21 26  1  0  0  0  0
 22 27  1  0  0  0  0
 23 28  1  0  0  0  0
 24 29  2  0  0  0  0
 26 30  1  6  0  0  0
 26 31  1  0  0  0  0
 28 32  2  0  0  0  0
 30 33  1  0  0  0  0
 31 34  1  0  0  0  0
 31 35  1  0  0  0  0
 33 36  2  0  0  0  0
 33 37  1  0  0  0  0
 37 38  2  0  0  0  0
 37 39  1  0  0  0  0
 38 40  1  0  0  0  0
 39 41  2  0  0  0  0
 41 42  1  0  0  0  0
  5  6  1  0  0  0  0
 29 32  1  0  0  0  0
 40 41  1  0  0  0  0
M  END
>  <MolRegNo>
329385

>  <m>
=

>  <Value>
45000

>  <Unit>
nM

>  <Type>
IC50

>  <Ligand Efficiency>


>  <Binding Efficiency>


>  <Surface Efficiency>


>  <Assay Index>
298649

>  <Assay Category>


>  <Assay Organism>
SARS coronavirus

>  <Target ID>
100499

>  <Target Name>
SARS coronavirus

>  <Target Organism>
SARS coronavirus

>  <Target Description>
Target is a complete organism

>  <Sequence Accession>


>  <Reference>
Bioorg. Med. Chem. Lett. 17 (21), 5876-5880 (2007)

>  <Pubmed ID>
17855091

>  <DOI>
10.1016/j.bmcl.2007.08.031

>  <InChI-Key>
DHTSLDPANDNYNQ-KVOKEACQSA-N

>  <Molecular Formula>
C31H40N4O7

>  <Monoisotopic Mass>
580.289701

>  <Druglikeness>
-2.5778

$$$$
Compound 95
Actelion Java MolfileCreator 1.0

 42 44  0  0  1  0  0  0  0  0999 V2000
    0.0000   -0.0000   -0.0000 O   0  0  0  0  0  0  0  0  0  0  0  0
    1.0995    1.0039   -0.0000 C   0  0  0  0  0  0  0  0  0  0  0  0
    2.5455    0.7051   -0.0000 N   0  0  0  0  0  0  0  0  0  0  0  0
    0.9322    2.4977   -0.0000 C   0  0  0  0  0  0  0  0  0  0  0  0
    3.2864    2.0077   -0.0000 C   0  0  0  0  0  0  0  0  0  0  0  0
    2.2826    3.1191   -0.0000 C   0  0  0  0  0  0  0  0  0  0  0  0
   -0.3824    3.2625   -0.0000 C   0  0  0  0  0  0  0  0  0  0  0  0
   -0.3944    4.7683   -0.0000 C   0  0  0  0  0  0  0  0  0  0  0  0
   -1.6970    5.5332   -0.0000 N   0  0  0  0  0  0  0  0  0  0  0  0
    0.8963    5.5332   -0.0000 C   0  0  0  0  0  0  0  0  0  0  0  0
   -3.0116    4.7922   -0.0000 C   0  0  0  0  0  0  0  0  0  0  0  0
    0.8844    7.0390   -0.0000 C   0  0  0  0  0  0  0  0  0  0  0  0
   -3.0235    3.3104   -0.0000 O   0  0  0  0  0  0  0  0  0  0  0  0
   -4.3142    5.5571   -0.0000 C   0  0  0  0  0  0  0  0  0  0  0  0
    2.1631    7.8038   -0.0000 C   0  0  0  0  0  0  0  0  0  0  0  0
   -4.3262    7.0629   -0.0000 C   0  0  0  0  0  0  0  0  0  0  0  0
   -5.6168    4.8161   -0.0000 C   0  0  0  0  0  0  0  0  0  0  0  0
    2.1511    9.3096   -0.0000 O   0  0  0  0  0  0  0  0  0  0  0  0
    3.4418    7.0629   -0.0000 O   0  0  0  0  0  0  0  0  0  0  0  0
   -3.5852    8.3775   -0.0000 C   0  0  0  0  0  0  0  0  0  0  0  0
   -6.9195    5.5810   -0.0000 C   0  0  0  0  0  0  0  0  0  0  0  0
    4.7205    7.8277   -0.0000 C   0  0  0  0  0  0  0  0  0  0  0  0
   -4.3620    9.6801   -0.0000 C   0  0  0  0  0  0  0  0  0  0  0  0
   -2.1033    8.4133   -0.0000 C   0  0  0  0  0  0  0  0  0  0  0  0
   -6.9314    7.0868   -0.0000 O   0  0  0  0  0  0  0  0  0  0  0  0
   -8.2340    4.8400   -0.0000 C   0  0  0  0  0  0  0  0  0  0  0  0
    6.0112    7.0868   -0.0000 C   0  0  0  0  0  0  0  0  0  0  0  0
   -3.6450   10.9947   -0.0000 C   0  0  0  0  0  0  0  0  0  0  0  0
   -1.3743    9.7279   -0.0000 C   0  0  0  0  0  0  0  0  0  0  0  0
   -9.5367    5.6049   -0.0000 N   0  0  0  0  0  0  0  0  0  0  0  0
   -8.2460    3.3582   -0.0000 C   0  0  0  0  0  0  0  0  0  0  0  0
   -2.1392   11.0305   -0.0000 C   0  0  0  0  0  0  0  0  0  0  0  0
  -10.8393    4.8639   -0.0000 C   0  0  0  0  0  0  0  0  0  0  0  0
   -9.5486    2.6172   -0.0000 C   0  0  0  0  0  0  0  0  0  0  0  0
   -6.9553    2.6172   -0.0000 C   0  0  0  0  0  0  0  0  0  0  0  0
  -10.8513    3.3821   -0.0000 O   0  0  0  0  0  0  0  0  0  0  0  0
  -12.1539    5.6288   -0.0000 C   0  0  0  0  0  0  0  0  0  0  0  0
  -12.3212    7.1346   -0.0000 N   0  0  0  0  0  0  0  0  0  0  0  0
  -13.5282    5.0432   -0.0000 C   0  0  0  0  0  0  0  0  0  0  0  0
  -13.7792    7.4573   -0.0000 O   0  0  0  0  0  0  0  0  0  0  0  0
  -14.5321    6.1666   -0.0000 C   0  0  0  0  0  0  0  0  0  0  0  0
  -16.0379    6.0232   -0.0000 C   0  0  0  0  0  0  0  0  0  0  0  0
  1  2  2  0  0  0  0
  2  3  1  0  0  0  0
  2  4  1  0  0  0  0
  3  5  1  0  0  0  0
  4  6  1  0  0  0  0
  4  7  1  6  0  0  0
  7  8  1  0  0  0  0
  8  9  1  6  0  0  0
  8 10  1  0  0  0  0
  9 11  1  0  0  0  0
 10 12  2  0  0  0  0
 11 13  2  0  0  0  0
 11 14  1  0  0  0  0
 12 15  1  0  0  0  0
 14 16  1  1  0  0  0
 14 17  1  0  0  0  0
 15 18  2  0  0  0  0
 15 19  1  0  0  0  0
 16 20  1  0  0  0  0
 17 21  1  0  0  0  0
 19 22  1  0  0  0  0
 20 23  2  0  0  0  0
 20 24  1  0  0  0  0
 21 25  2  0  0  0  0
 21 26  1  0  0  0  0
 22 27  1  0  0  0  0
 23 28  1  0  0  0  0
 24 29  2  0  0  0  0
 26 30  1  6  0  0  0
 26 31  1  0  0  0  0
 28 32  2  0  0  0  0
 30 33  1  0  0  0  0
 31 34  1  0  0  0  0
 31 35  1  0  0  0  0
 33 36  2  0  0  0  0
 33 37  1  0  0  0  0
 37 38  2  0  0  0  0
 37 39  1  0  0  0  0
 38 40  1  0  0  0  0
 39 41  2  0  0  0  0
 41 42  1  0  0  0  0
  5  6  1  0  0  0  0
 29 32  1  0  0  0  0
 40 41  1  0  0  0  0
M  END
>  <MolRegNo>
329385

>  <m>
=

>  <Value>
0.8167

>  <Unit>
hr

>  <Type>
T1/2

>  <Ligand Efficiency>


>  <Binding Efficiency>


>  <Surface Efficiency>


>  <Assay Index>
250668

>  <Assay Category>


>  <Assay Organism>
Carona virus

>  <Target ID>
20012

>  <Target Name>
SARS coronavirus 3C-like proteinase

>  <Target Organism>
SARS coronavirus

>  <Target Description>
Target is a single protein chain

>  <Sequence Accession>
P0C6U8

>  <Reference>
J. Med. Chem. 48 (22), 6767-6771 (2005)

>  <Pubmed ID>
16250632

>  <DOI>
10.1021/jm050548m

>  <InChI-Key>
DHTSLDPANDNYNQ-KVOKEACQSA-N

>  <Molecular Formula>
C31H40N4O7

>  <Monoisotopic Mass>
580.289701

>  <Druglikeness>
-2.5778

$$$$
Compound 96
Actelion Java MolfileCreator 1.0

 42 44  0  0  1  0  0  0  0  0999 V2000
    0.0000   -0.0000   -0.0000 O   0  0  0  0  0  0  0  0  0  0  0  0
    1.0995    1.0039   -0.0000 C   0  0  0  0  0  0  0  0  0  0  0  0
    2.5455    0.7051   -0.0000 N   0  0  0  0  0  0  0  0  0  0  0  0
    0.9322    2.4977   -0.0000 C   0  0  0  0  0  0  0  0  0  0  0  0
    3.2864    2.0077   -0.0000 C   0  0  0  0  0  0  0  0  0  0  0  0
    2.2826    3.1191   -0.0000 C   0  0  0  0  0  0  0  0  0  0  0  0
   -0.3824    3.2625   -0.0000 C   0  0  0  0  0  0  0  0  0  0  0  0
   -0.3944    4.7683   -0.0000 C   0  0  0  0  0  0  0  0  0  0  0  0
   -1.6970    5.5332   -0.0000 N   0  0  0  0  0  0  0  0  0  0  0  0
    0.8963    5.5332   -0.0000 C   0  0  0  0  0  0  0  0  0  0  0  0
   -3.0116    4.7922   -0.0000 C   0  0  0  0  0  0  0  0  0  0  0  0
    0.8844    7.0390   -0.0000 C   0  0  0  0  0  0  0  0  0  0  0  0
   -3.0235    3.3104   -0.0000 O   0  0  0  0  0  0  0  0  0  0  0  0
   -4.3142    5.5571   -0.0000 C   0  0  0  0  0  0  0  0  0  0  0  0
    2.1631    7.8038   -0.0000 C   0  0  0  0  0  0  0  0  0  0  0  0
   -4.3262    7.0629   -0.0000 C   0  0  0  0  0  0  0  0  0  0  0  0
   -5.6168    4.8161   -0.0000 C   0  0  0  0  0  0  0  0  0  0  0  0
    2.1511    9.3096   -0.0000 O   0  0  0  0  0  0  0  0  0  0  0  0
    3.4418    7.0629   -0.0000 O   0  0  0  0  0  0  0  0  0  0  0  0
   -3.5852    8.3775   -0.0000 C   0  0  0  0  0  0  0  0  0  0  0  0
   -6.9195    5.5810   -0.0000 C   0  0  0  0  0  0  0  0  0  0  0  0
    4.7205    7.8277   -0.0000 C   0  0  0  0  0  0  0  0  0  0  0  0
   -4.3620    9.6801   -0.0000 C   0  0  0  0  0  0  0  0  0  0  0  0
   -2.1033    8.4133   -0.0000 C   0  0  0  0  0  0  0  0  0  0  0  0
   -6.9314    7.0868   -0.0000 O   0  0  0  0  0  0  0  0  0  0  0  0
   -8.2340    4.8400   -0.0000 C   0  0  0  0  0  0  0  0  0  0  0  0
    6.0112    7.0868   -0.0000 C   0  0  0  0  0  0  0  0  0  0  0  0
   -3.6450   10.9947   -0.0000 C   0  0  0  0  0  0  0  0  0  0  0  0
   -1.3743    9.7279   -0.0000 C   0  0  0  0  0  0  0  0  0  0  0  0
   -9.5367    5.6049   -0.0000 N   0  0  0  0  0  0  0  0  0  0  0  0
   -8.2460    3.3582   -0.0000 C   0  0  0  0  0  0  0  0  0  0  0  0
   -2.1392   11.0305   -0.0000 C   0  0  0  0  0  0  0  0  0  0  0  0
  -10.8393    4.8639   -0.0000 C   0  0  0  0  0  0  0  0  0  0  0  0
   -9.5486    2.6172   -0.0000 C   0  0  0  0  0  0  0  0  0  0  0  0
   -6.9553    2.6172   -0.0000 C   0  0  0  0  0  0  0  0  0  0  0  0
  -10.8513    3.3821   -0.0000 O   0  0  0  0  0  0  0  0  0  0  0  0
  -12.1539    5.6288   -0.0000 C   0  0  0  0  0  0  0  0  0  0  0  0
  -12.3212    7.1346   -0.0000 N   0  0  0  0  0  0  0  0  0  0  0  0
  -13.5282    5.0432   -0.0000 C   0  0  0  0  0  0  0  0  0  0  0  0
  -13.7792    7.4573   -0.0000 O   0  0  0  0  0  0  0  0  0  0  0  0
  -14.5321    6.1666   -0.0000 C   0  0  0  0  0  0  0  0  0  0  0  0
  -16.0379    6.0232   -0.0000 C   0  0  0  0  0  0  0  0  0  0  0  0
  1  2  2  0  0  0  0
  2  3  1  0  0  0  0
  2  4  1  0  0  0  0
  3  5  1  0  0  0  0
  4  6  1  0  0  0  0
  4  7  1  6  0  0  0
  7  8  1  0  0  0  0
  8  9  1  6  0  0  0
  8 10  1  0  0  0  0
  9 11  1  0  0  0  0
 10 12  2  0  0  0  0
 11 13  2  0  0  0  0
 11 14  1  0  0  0  0
 12 15  1  0  0  0  0
 14 16  1  1  0  0  0
 14 17  1  0  0  0  0
 15 18  2  0  0  0  0
 15 19  1  0  0  0  0
 16 20  1  0  0  0  0
 17 21  1  0  0  0  0
 19 22  1  0  0  0  0
 20 23  2  0  0  0  0
 20 24  1  0  0  0  0
 21 25  2  0  0  0  0
 21 26  1  0  0  0  0
 22 27  1  0  0  0  0
 23 28  1  0  0  0  0
 24 29  2  0  0  0  0
 26 30  1  6  0  0  0
 26 31  1  0  0  0  0
 28 32  2  0  0  0  0
 30 33  1  0  0  0  0
 31 34  1  0  0  0  0
 31 35  1  0  0  0  0
 33 36  2  0  0  0  0
 33 37  1  0  0  0  0
 37 38  2  0  0  0  0
 37 39  1  0  0  0  0
 38 40  1  0  0  0  0
 39 41  2  0  0  0  0
 41 42  1  0  0  0  0
  5  6  1  0  0  0  0
 29 32  1  0  0  0  0
 40 41  1  0  0  0  0
M  END
>  <MolRegNo>
329385

>  <m>
=

>  <Value>
0.014

>  <Unit>
1/min

>  <Type>
kinact

>  <Ligand Efficiency>


>  <Binding Efficiency>


>  <Surface Efficiency>


>  <Assay Index>
250772

>  <Assay Category>


>  <Assay Organism>
Carona virus

>  <Target ID>
20012

>  <Target Name>
SARS coronavirus 3C-like proteinase

>  <Target Organism>
SARS coronavirus

>  <Target Description>
Target is a single protein chain

>  <Sequence Accession>
P0C6U8

>  <Reference>
J. Med. Chem. 48 (22), 6767-6771 (2005)

>  <Pubmed ID>
16250632

>  <DOI>
10.1021/jm050548m

>  <InChI-Key>
DHTSLDPANDNYNQ-KVOKEACQSA-N

>  <Molecular Formula>
C31H40N4O7

>  <Monoisotopic Mass>
580.289701

>  <Druglikeness>
-2.5778

$$$$
Compound 97
Actelion Java MolfileCreator 1.0

 15 16  0  0  0  0  0  0  0  0999 V2000
    0.0000   -0.0000   -0.0000 S   0  0  0  0  0  0  0  0  0  0  0  0
   -0.7724    1.3071   -0.0000 O   0  0  0  0  0  0  0  0  0  0  0  0
    0.7486   -1.2834   -0.0000 O   0  0  0  0  0  0  0  0  0  0  0  0
    1.2952    0.7605   -0.0000 N   0  0  0  0  0  0  0  0  0  0  0  0
   -1.3071   -0.7605   -0.0000 C   0  0  0  0  0  0  0  0  0  0  0  0
    2.5905    0.0238   -0.0000 C   0  0  0  0  0  0  0  0  0  0  0  0
   -1.4497   -2.2459   -0.0000 S   0  0  0  0  0  0  0  0  0  0  0  0
   -2.6974   -0.1545   -0.0000 C   0  0  0  0  0  0  0  0  0  0  0  0
    2.5786   -1.4735   -0.0000 C   0  0  0  0  0  0  0  0  0  0  0  0
    3.8739    0.7843   -0.0000 C   0  0  0  0  0  0  0  0  0  0  0  0
   -2.9232   -2.5667   -0.0000 C   0  0  0  0  0  0  0  0  0  0  0  0
   -3.6956   -1.2715   -0.0000 C   0  0  0  0  0  0  0  0  0  0  0  0
    3.8739   -2.2102   -0.0000 N   0  0  0  0  0  0  0  0  0  0  0  0
    5.1691    0.0475   -0.0000 C   0  0  0  0  0  0  0  0  0  0  0  0
    5.1691   -1.4497   -0.0000 C   0  0  0  0  0  0  0  0  0  0  0  0
  1  2  2  0  0  0  0
  1  3  2  0  0  0  0
  1  4  1  0  0  0  0
  1  5  1  0  0  0  0
  4  6  1  0  0  0  0
  5  7  1  0  0  0  0
  5  8  2  0  0  0  0
  6  9  2  0  0  0  0
  6 10  1  0  0  0  0
  7 11  1  0  0  0  0
  8 12  1  0  0  0  0
  9 13  1  0  0  0  0
 10 14  2  0  0  0  0
 13 15  2  0  0  0  0
 11 12  2  0  0  0  0
 14 15  1  0  0  0  0
M  END
>  <MolRegNo>
371890

>  <m>
<

>  <Value>
10

>  <Unit>
%

>  <Type>
Inhibition

>  <Ligand Efficiency>


>  <Binding Efficiency>


>  <Surface Efficiency>


>  <Assay Index>
278390

>  <Assay Category>


>  <Assay Organism>
SARS coronavirus

>  <Target ID>
20012

>  <Target Name>
SARS coronavirus 3C-like proteinase

>  <Target Organism>
SARS coronavirus

>  <Target Description>
Target is a single protein chain

>  <Sequence Accession>
P0C6U8

>  <Reference>
J. Med. Chem. 50 (8), 1850-1864 (2007)

>  <Pubmed ID>
17381079

>  <DOI>
10.1021/jm061425k

>  <InChI-Key>
DJOJRYLDSBEZMU-UHFFFAOYSA-N

>  <Molecular Formula>
C9H8N2O2S2

>  <Monoisotopic Mass>
240.002718

>  <Druglikeness>
1.6101

$$$$
Compound 98
Actelion Java MolfileCreator 1.0

 27 30  0  0  0  0  0  0  0  0999 V2000
    0.0000   -0.0000   -0.0000 Cl  0  0  0  0  0  0  0  0  0  0  0  0
    1.2835   -0.7368   -0.0000 C   0  0  0  0  0  0  0  0  0  0  0  0
    2.5670    0.0238   -0.0000 C   0  0  0  0  0  0  0  0  0  0  0  0
    1.2716   -2.2342   -0.0000 C   0  0  0  0  0  0  0  0  0  0  0  0
    3.8505   -0.7131   -0.0000 C   0  0  0  0  0  0  0  0  0  0  0  0
    2.5551    1.5331   -0.0000 C   0  0  0  0  0  0  0  0  0  0  0  0
    2.5551   -2.9711   -0.0000 C   0  0  0  0  0  0  0  0  0  0  0  0
    5.1340    0.0475   -0.0000 Cl  0  0  0  0  0  0  0  0  0  0  0  0
    3.8386   -2.2105   -0.0000 C   0  0  0  0  0  0  0  0  0  0  0  0
    3.7435    2.4244   -0.0000 S   0  0  0  0  0  0  0  0  0  0  0  0
    1.3191    2.4125   -0.0000 N   0  0  0  0  0  0  0  0  0  0  0  0
    3.2682    3.8624   -0.0000 C   0  0  0  0  0  0  0  0  0  0  0  0
   -0.1901    2.4125   -0.0000 C   0  0  0  0  0  0  0  0  0  0  0  0
    1.7707    3.8505   -0.0000 C   0  0  0  0  0  0  0  0  0  0  0  0
   -0.9389    1.1171   -0.0000 N   0  0  0  0  0  0  0  0  0  0  0  0
   -0.9507    3.7198   -0.0000 N   0  0  0  0  0  0  0  0  0  0  0  0
    0.8794    5.0746   -0.0000 O   0  0  0  0  0  0  0  0  0  0  0  0
   -2.4481    1.1171   -0.0000 C   0  0  0  0  0  0  0  0  0  0  0  0
   -2.4600    3.7198   -0.0000 C   0  0  0  0  0  0  0  0  0  0  0  0
   -3.1968   -0.1783   -0.0000 C   0  0  0  0  0  0  0  0  0  0  0  0
   -3.2206    2.4244   -0.0000 C   0  0  0  0  0  0  0  0  0  0  0  0
   -3.2325    5.0270   -0.0000 C   0  0  0  0  0  0  0  0  0  0  0  0
   -4.7061   -0.1664   -0.0000 C   0  0  0  0  0  0  0  0  0  0  0  0
   -2.4481   -1.4499   -0.0000 C   0  0  0  0  0  0  0  0  0  0  0  0
   -5.4548   -1.4618   -0.0000 C   0  0  0  0  0  0  0  0  0  0  0  0
   -3.1968   -2.7453   -0.0000 C   0  0  0  0  0  0  0  0  0  0  0  0
   -4.7061   -2.7453   -0.0000 C   0  0  0  0  0  0  0  0  0  0  0  0
  1  2  1  0  0  0  0
  2  3  2  0  0  0  0
  2  4  1  0  0  0  0
  3  5  1  0  0  0  0
  3  6  1  0  0  0  0
  4  7  2  0  0  0  0
  5  8  1  0  0  0  0
  5  9  2  0  0  0  0
  6 10  1  0  0  0  0
  6 11  1  0  0  0  0
 10 12  1  0  0  0  0
 11 13  1  0  0  0  0
 11 14  1  0  0  0  0
 13 15  2  0  0  0  0
 13 16  1  0  0  0  0
 14 17  2  0  0  0  0
 15 18  1  0  0  0  0
 16 19  2  0  0  0  0
 18 20  1  0  0  0  0
 18 21  2  0  0  0  0
 19 22  1  0  0  0  0
 20 23  2  0  0  0  0
 20 24  1  0  0  0  0
 23 25  1  0  0  0  0
 24 26  2  0  0  0  0
 25 27  2  0  0  0  0
  7  9  1  0  0  0  0
 12 14  1  0  0  0  0
 19 21  1  0  0  0  0
 26 27  1  0  0  0  0
M  END
>  <MolRegNo>
379281

>  <m>
<=

>  <Value>
50

>  <Unit>
%

>  <Type>
Inhibition

>  <Ligand Efficiency>


>  <Binding Efficiency>


>  <Surface Efficiency>


>  <Assay Index>
406904

>  <Assay Category>


>  <Assay Organism>
SARS coronavirus

>  <Target ID>
101075

>  <Target Name>
Replicase polyprotein 1ab

>  <Target Organism>
SARS coronavirus

>  <Target Description>
Target is a single protein chain

>  <Sequence Accession>
P0C6X7

>  <Reference>
Bioorg. Med. Chem. Lett. 18 (23), 6110-6114 (2008)

>  <Pubmed ID>
18947995

>  <DOI>
10.1016/j.bmcl.2008.10.023

>  <InChI-Key>
DJWLQTYNNCVURN-UHFFFAOYSA-N

>  <Molecular Formula>
C20H15N3OCl2S

>  <Monoisotopic Mass>
415.031286

>  <Druglikeness>
2.7867

$$$$
Compound 99
Actelion Java MolfileCreator 1.0

 16 17  0  0  0  0  0  0  0  0999 V2000
    0.0000   -0.0000   -0.0000 I   0  0  0  0  0  0  0  0  0  0  0  0
    1.2906   -0.7409   -0.0000 C   0  0  0  0  0  0  0  0  0  0  0  0
    2.5693    0.0239   -0.0000 C   0  0  0  0  0  0  0  0  0  0  0  0
    1.2787   -2.2347   -0.0000 C   0  0  0  0  0  0  0  0  0  0  0  0
    3.8719   -0.7051   -0.0000 C   0  0  0  0  0  0  0  0  0  0  0  0
    2.5693   -2.9756   -0.0000 C   0  0  0  0  0  0  0  0  0  0  0  0
    5.3059   -0.2271   -0.0000 C   0  0  0  0  0  0  0  0  0  0  0  0
    3.8599   -2.2108   -0.0000 C   0  0  0  0  0  0  0  0  0  0  0  0
    5.7600    1.2189   -0.0000 O   0  0  0  0  0  0  0  0  0  0  0  0
    6.1903   -1.4460   -0.0000 C   0  0  0  0  0  0  0  0  0  0  0  0
    5.2940   -2.6649   -0.0000 N   0  0  0  0  0  0  0  0  0  0  0  0
    7.6840   -1.4340   -0.0000 O   0  0  0  0  0  0  0  0  0  0  0  0
    5.7481   -4.0870   -0.0000 C   0  0  0  0  0  0  0  0  0  0  0  0
    4.7323   -5.1984   -0.0000 C   0  0  0  0  0  0  0  0  0  0  0  0
    5.1864   -6.6205   -0.0000 C   0  0  0  0  0  0  0  0  0  0  0  0
    4.1707   -7.7318   -0.0000 C   0  0  0  0  0  0  0  0  0  0  0  0
  1  2  1  0  0  0  0
  2  3  2  0  0  0  0
  2  4  1  0  0  0  0
  3  5  1  0  0  0  0
  4  6  2  0  0  0  0
  5  7  1  0  0  0  0
  5  8  2  0  0  0  0
  7  9  2  0  0  0  0
  7 10  1  0  0  0  0
  8 11  1  0  0  0  0
 10 12  2  0  0  0  0
 11 13  1  0  0  0  0
 13 14  1  0  0  0  0
 14 15  1  0  0  0  0
 15 16  1  0  0  0  0
  6  8  1  0  0  0  0
 10 11  1  0  0  0  0
M  END
>  <MolRegNo>
349110

>  <m>
=

>  <Value>
66000

>  <Unit>
nM

>  <Type>
IC50

>  <Ligand Efficiency>
0.36

>  <Binding Efficiency>
12.70

>  <Surface Efficiency>
11.18

>  <Assay Index>
262886

>  <Assay Category>


>  <Assay Organism>
SARS coronavirus

>  <Target ID>
20012

>  <Target Name>
SARS coronavirus 3C-like proteinase

>  <Target Organism>
SARS coronavirus

>  <Target Description>
Target is a single protein chain

>  <Sequence Accession>
P0C6U8

>  <Reference>
J. Med. Chem. 49 (12), 3440-3443 (2006)

>  <Pubmed ID>
16759084

>  <DOI>
10.1021/jm0602357

>  <InChI-Key>
DKYBERVCUALHHG-UHFFFAOYSA-N

>  <Molecular Formula>
C12H12NO2I

>  <Monoisotopic Mass>
328.991277

>  <Druglikeness>
-1.1668

$$$$
Compound 100
Actelion Java MolfileCreator 1.0

 16 17  0  0  0  0  0  0  0  0999 V2000
    0.0000   -0.0000   -0.0000 I   0  0  0  0  0  0  0  0  0  0  0  0
    1.2906   -0.7409   -0.0000 C   0  0  0  0  0  0  0  0  0  0  0  0
    2.5693    0.0239   -0.0000 C   0  0  0  0  0  0  0  0  0  0  0  0
    1.2787   -2.2347   -0.0000 C   0  0  0  0  0  0  0  0  0  0  0  0
    3.8719   -0.7051   -0.0000 C   0  0  0  0  0  0  0  0  0  0  0  0
    2.5693   -2.9756   -0.0000 C   0  0  0  0  0  0  0  0  0  0  0  0
    5.3059   -0.2271   -0.0000 C   0  0  0  0  0  0  0  0  0  0  0  0
    3.8599   -2.2108   -0.0000 C   0  0  0  0  0  0  0  0  0  0  0  0
    5.7600    1.2189   -0.0000 O   0  0  0  0  0  0  0  0  0  0  0  0
    6.1903   -1.4460   -0.0000 C   0  0  0  0  0  0  0  0  0  0  0  0
    5.2940   -2.6649   -0.0000 N   0  0  0  0  0  0  0  0  0  0  0  0
    7.6840   -1.4340   -0.0000 O   0  0  0  0  0  0  0  0  0  0  0  0
    5.7481   -4.0870   -0.0000 C   0  0  0  0  0  0  0  0  0  0  0  0
    4.7323   -5.1984   -0.0000 C   0  0  0  0  0  0  0  0  0  0  0  0
    5.1864   -6.6205   -0.0000 C   0  0  0  0  0  0  0  0  0  0  0  0
    4.1707   -7.7318   -0.0000 C   0  0  0  0  0  0  0  0  0  0  0  0
  1  2  1  0  0  0  0
  2  3  2  0  0  0  0
  2  4  1  0  0  0  0
  3  5  1  0  0  0  0
  4  6  2  0  0  0  0
  5  7  1  0  0  0  0
  5  8  2  0  0  0  0
  7  9  2  0  0  0  0
  7 10  1  0  0  0  0
  8 11  1  0  0  0  0
 10 12  2  0  0  0  0
 11 13  1  0  0  0  0
 13 14  1  0  0  0  0
 14 15  1  0  0  0  0
 15 16  1  0  0  0  0
  6  8  1  0  0  0  0
 10 11  1  0  0  0  0
M  END
>  <MolRegNo>
349110

>  <m>
=

>  <Value>
66069

>  <Unit>
nM

>  <Type>
Ki

>  <Ligand Efficiency>


>  <Binding Efficiency>


>  <Surface Efficiency>


>  <Assay Index>
262886

>  <Assay Category>


>  <Assay Organism>
SARS coronavirus

>  <Target ID>
20012

>  <Target Name>
SARS coronavirus 3C-like proteinase

>  <Target Organism>
SARS coronavirus

>  <Target Description>
Target is a single protein chain

>  <Sequence Accession>
P0C6U8

>  <Reference>
J. Med. Chem. 49 (12), 3440-3443 (2006)

>  <Pubmed ID>
16759084

>  <DOI>
10.1021/jm0602357

>  <InChI-Key>
DKYBERVCUALHHG-UHFFFAOYSA-N

>  <Molecular Formula>
C12H12NO2I

>  <Monoisotopic Mass>
328.991277

>  <Druglikeness>
-1.1668

$$$$
Compound 101
Actelion Java MolfileCreator 1.0

 16 17  0  0  0  0  0  0  0  0999 V2000
    0.0000   -0.0000   -0.0000 I   0  0  0  0  0  0  0  0  0  0  0  0
    1.2906   -0.7409   -0.0000 C   0  0  0  0  0  0  0  0  0  0  0  0
    2.5693    0.0239   -0.0000 C   0  0  0  0  0  0  0  0  0  0  0  0
    1.2787   -2.2347   -0.0000 C   0  0  0  0  0  0  0  0  0  0  0  0
    3.8719   -0.7051   -0.0000 C   0  0  0  0  0  0  0  0  0  0  0  0
    2.5693   -2.9756   -0.0000 C   0  0  0  0  0  0  0  0  0  0  0  0
    5.3059   -0.2271   -0.0000 C   0  0  0  0  0  0  0  0  0  0  0  0
    3.8599   -2.2108   -0.0000 C   0  0  0  0  0  0  0  0  0  0  0  0
    5.7600    1.2189   -0.0000 O   0  0  0  0  0  0  0  0  0  0  0  0
    6.1903   -1.4460   -0.0000 C   0  0  0  0  0  0  0  0  0  0  0  0
    5.2940   -2.6649   -0.0000 N   0  0  0  0  0  0  0  0  0  0  0  0
    7.6840   -1.4340   -0.0000 O   0  0  0  0  0  0  0  0  0  0  0  0
    5.7481   -4.0870   -0.0000 C   0  0  0  0  0  0  0  0  0  0  0  0
    4.7323   -5.1984   -0.0000 C   0  0  0  0  0  0  0  0  0  0  0  0
    5.1864   -6.6205   -0.0000 C   0  0  0  0  0  0  0  0  0  0  0  0
    4.1707   -7.7318   -0.0000 C   0  0  0  0  0  0  0  0  0  0  0  0
  1  2  1  0  0  0  0
  2  3  2  0  0  0  0
  2  4  1  0  0  0  0
  3  5  1  0  0  0  0
  4  6  2  0  0  0  0
  5  7  1  0  0  0  0
  5  8  2  0  0  0  0
  7  9  2  0  0  0  0
  7 10  1  0  0  0  0
  8 11  1  0  0  0  0
 10 12  2  0  0  0  0
 11 13  1  0  0  0  0
 13 14  1  0  0  0  0
 14 15  1  0  0  0  0
 15 16  1  0  0  0  0
  6  8  1  0  0  0  0
 10 11  1  0  0  0  0
M  END
>  <MolRegNo>
349110

>  <m>
=

>  <Value>
66000

>  <Unit>
nM

>  <Type>
Ki

>  <Ligand Efficiency>
0.36

>  <Binding Efficiency>
12.70

>  <Surface Efficiency>
11.18

>  <Assay Index>
262886

>  <Assay Category>


>  <Assay Organism>
SARS coronavirus

>  <Target ID>
20012

>  <Target Name>
SARS coronavirus 3C-like proteinase

>  <Target Organism>
SARS coronavirus

>  <Target Description>
Target is a single protein chain

>  <Sequence Accession>
P0C6U8

>  <Reference>
J. Med. Chem. 49 (12), 3440-3443 (2006)

>  <Pubmed ID>
16759084

>  <DOI>
10.1021/jm0602357

>  <InChI-Key>
DKYBERVCUALHHG-UHFFFAOYSA-N

>  <Molecular Formula>
C12H12NO2I

>  <Monoisotopic Mass>
328.991277

>  <Druglikeness>
-1.1668

$$$$
Compound 102
Actelion Java MolfileCreator 1.0

 20 22  0  0  1  0  0  0  0  0999 V2000
    0.0000   -0.0000   -0.0000 O   0  0  0  0  0  0  0  0  0  0  0  0
   -0.0119   -1.4903   -0.0000 C   0  0  0  0  0  0  0  0  0  0  0  0
    1.2757   -2.2295   -0.0000 N   0  0  0  0  0  0  0  0  0  0  0  0
   -1.3234   -2.2295   -0.0000 C   0  0  0  0  0  0  0  0  0  0  0  0
    1.2638   -3.7317   -0.0000 C   0  0  0  0  0  0  0  0  0  0  0  0
   -2.7660   -1.7526   -0.0000 N   0  0  0  0  0  0  0  0  0  0  0  0
   -1.3353   -3.7198   -0.0000 C   0  0  0  0  0  0  0  0  0  0  0  0
   -0.0596   -4.4709   -0.0000 N   0  0  0  0  0  0  0  0  0  0  0  0
    2.5514   -4.4709   -0.0000 N   0  0  0  0  0  0  0  0  0  0  0  0
   -3.6602   -2.9687   -0.0000 C   0  0  0  0  0  0  0  0  0  0  0  0
   -2.7779   -4.1728   -0.0000 C   0  0  0  0  0  0  0  0  0  0  0  0
   -3.2548   -5.5916   -0.0000 C   0  0  0  0  0  0  0  0  0  0  0  0
   -4.7093   -6.0446   -0.0000 C   0  0  0  0  0  0  0  0  0  0  0  0
   -2.3845   -6.7957   -0.0000 C   0  0  0  0  0  0  0  0  0  0  0  0
   -4.7212   -7.5349   -0.0000 C   0  0  0  0  0  0  0  0  0  0  0  0
   -0.8942   -6.7719   -0.0000 O   0  0  0  0  0  0  0  0  0  0  0  0
   -3.2786   -7.9999   -0.0000 C   0  0  0  0  0  0  0  0  0  0  0  0
   -5.9492   -8.4052   -0.0000 C   0  0  0  0  0  0  0  0  0  0  0  0
   -2.8256   -9.4186   -0.0000 O   0  0  0  0  0  0  0  0  0  0  0  0
   -7.3322   -7.7853   -0.0000 O   0  0  0  0  0  0  0  0  0  0  0  0
  1  2  1  0  0  0  0
  2  3  2  0  0  0  0
  2  4  1  0  0  0  0
  3  5  1  0  0  0  0
  4  6  1  0  0  0  0
  4  7  2  0  0  0  0
  5  8  2  0  0  0  0
  5  9  1  0  0  0  0
  6 10  1  0  0  0  0
  7 11  1  0  0  0  0
 12 11  1  1  0  0  0
 12 13  1  0  0  0  0
 12 14  1  0  0  0  0
 13 15  2  0  0  0  0
 14 16  1  6  0  0  0
 14 17  1  0  0  0  0
 15 18  1  0  0  0  0
 17 19  1  6  0  0  0
 18 20  1  0  0  0  0
  7  8  1  0  0  0  0
 10 11  2  0  0  0  0
 15 17  1  0  0  0  0
M  END
>  <MolRegNo>
376353

>  <m>
>

>  <Value>
1.0e5

>  <Unit>
nM

>  <Type>
EC50

>  <Ligand Efficiency>


>  <Binding Efficiency>


>  <Surface Efficiency>


>  <Assay Index>
281342

>  <Assay Category>


>  <Assay Organism>
SARS coronavirus

>  <Target ID>
100499

>  <Target Name>
SARS coronavirus

>  <Target Organism>
SARS coronavirus

>  <Target Description>
Target is a complete organism

>  <Sequence Accession>


>  <Reference>
Bioorg. Med. Chem. 15 (2), 839-846 (2007)

>  <Pubmed ID>
17085053

>  <DOI>
10.1016/j.bmc.2006.10.043

>  <InChI-Key>
DMBWFFNIQQIPGN-AGEOJFDCSA-N

>  <Molecular Formula>
C12H14N4O4

>  <Monoisotopic Mass>
278.101506

>  <Druglikeness>
0.29006

$$$$
Compound 103
Actelion Java MolfileCreator 1.0

 20 22  0  0  1  0  0  0  0  0999 V2000
    0.0000   -0.0000   -0.0000 O   0  0  0  0  0  0  0  0  0  0  0  0
   -0.0119   -1.4903   -0.0000 C   0  0  0  0  0  0  0  0  0  0  0  0
    1.2757   -2.2295   -0.0000 N   0  0  0  0  0  0  0  0  0  0  0  0
   -1.3234   -2.2295   -0.0000 C   0  0  0  0  0  0  0  0  0  0  0  0
    1.2638   -3.7317   -0.0000 C   0  0  0  0  0  0  0  0  0  0  0  0
   -2.7660   -1.7526   -0.0000 N   0  0  0  0  0  0  0  0  0  0  0  0
   -1.3353   -3.7198   -0.0000 C   0  0  0  0  0  0  0  0  0  0  0  0
   -0.0596   -4.4709   -0.0000 N   0  0  0  0  0  0  0  0  0  0  0  0
    2.5514   -4.4709   -0.0000 N   0  0  0  0  0  0  0  0  0  0  0  0
   -3.6602   -2.9687   -0.0000 C   0  0  0  0  0  0  0  0  0  0  0  0
   -2.7779   -4.1728   -0.0000 C   0  0  0  0  0  0  0  0  0  0  0  0
   -3.2548   -5.5916   -0.0000 C   0  0  0  0  0  0  0  0  0  0  0  0
   -4.7093   -6.0446   -0.0000 C   0  0  0  0  0  0  0  0  0  0  0  0
   -2.3845   -6.7957   -0.0000 C   0  0  0  0  0  0  0  0  0  0  0  0
   -4.7212   -7.5349   -0.0000 C   0  0  0  0  0  0  0  0  0  0  0  0
   -0.8942   -6.7719   -0.0000 O   0  0  0  0  0  0  0  0  0  0  0  0
   -3.2786   -7.9999   -0.0000 C   0  0  0  0  0  0  0  0  0  0  0  0
   -5.9492   -8.4052   -0.0000 C   0  0  0  0  0  0  0  0  0  0  0  0
   -2.8256   -9.4186   -0.0000 O   0  0  0  0  0  0  0  0  0  0  0  0
   -7.3322   -7.7853   -0.0000 O   0  0  0  0  0  0  0  0  0  0  0  0
  1  2  1  0  0  0  0
  2  3  2  0  0  0  0
  2  4  1  0  0  0  0
  3  5  1  0  0  0  0
  4  6  1  0  0  0  0
  4  7  2  0  0  0  0
  5  8  2  0  0  0  0
  5  9  1  0  0  0  0
  6 10  1  0  0  0  0
  7 11  1  0  0  0  0
 12 11  1  1  0  0  0
 12 13  1  0  0  0  0
 12 14  1  0  0  0  0
 13 15  2  0  0  0  0
 14 16  1  6  0  0  0
 14 17  1  0  0  0  0
 15 18  1  0  0  0  0
 17 19  1  6  0  0  0
 18 20  1  0  0  0  0
  7  8  1  0  0  0  0
 10 11  2  0  0  0  0
 15 17  1  0  0  0  0
M  END
>  <MolRegNo>
376353

>  <m>
>

>  <Value>
1.0e5

>  <Unit>
nM

>  <Type>
IC50

>  <Ligand Efficiency>


>  <Binding Efficiency>


>  <Surface Efficiency>


>  <Assay Index>
281342

>  <Assay Category>


>  <Assay Organism>
SARS coronavirus

>  <Target ID>
100499

>  <Target Name>
SARS coronavirus

>  <Target Organism>
SARS coronavirus

>  <Target Description>
Target is a complete organism

>  <Sequence Accession>


>  <Reference>
Bioorg. Med. Chem. 15 (2), 839-846 (2007)

>  <Pubmed ID>
17085053

>  <DOI>
10.1016/j.bmc.2006.10.043

>  <InChI-Key>
DMBWFFNIQQIPGN-AGEOJFDCSA-N

>  <Molecular Formula>
C12H14N4O4

>  <Monoisotopic Mass>
278.101506

>  <Druglikeness>
0.29006

$$$$
Compound 104
Actelion Java MolfileCreator 1.0

 25 27  0  0  0  0  0  0  0  0999 V2000
    0.0000   -0.0000   -0.0000 S   0  0  0  0  0  0  0  0  0  0  0  0
    0.5920    1.3735   -0.0000 C   0  0  0  0  0  0  0  0  0  0  0  0
   -1.4920   -0.1421   -0.0000 C   0  0  0  0  0  0  0  0  0  0  0  0
    2.0603    1.5393   -0.0000 N   0  0  0  0  0  0  0  0  0  0  0  0
   -0.2960    2.5813   -0.0000 N   0  0  0  0  0  0  0  0  0  0  0  0
   -2.4984    0.9828   -0.0000 C   0  0  0  0  0  0  0  0  0  0  0  0
   -2.2498   -1.4209   -0.0000 C   0  0  0  0  0  0  0  0  0  0  0  0
    2.6524    2.9129   -0.0000 C   0  0  0  0  0  0  0  0  0  0  0  0
    0.2960    3.9549   -0.0000 C   0  0  0  0  0  0  0  0  0  0  0  0
   -2.2024    2.4511   -0.0000 O   0  0  0  0  0  0  0  0  0  0  0  0
   -3.8720    0.3908   -0.0000 N   0  0  0  0  0  0  0  0  0  0  0  0
   -3.7180   -1.1012   -0.0000 C   0  0  0  0  0  0  0  0  0  0  0  0
    1.7643    4.1325   -0.0000 C   0  0  0  0  0  0  0  0  0  0  0  0
    4.1206    3.0786   -0.0000 C   0  0  0  0  0  0  0  0  0  0  0  0
   -0.6039    5.1745   -0.0000 C   0  0  0  0  0  0  0  0  0  0  0  0
   -5.1745    1.1486   -0.0000 C   0  0  0  0  0  0  0  0  0  0  0  0
   -4.8429   -2.0958   -0.0000 O   0  0  0  0  0  0  0  0  0  0  0  0
   -6.4888    0.4144   -0.0000 C   0  0  0  0  0  0  0  0  0  0  0  0
   -5.1863    2.6642   -0.0000 C   0  0  0  0  0  0  0  0  0  0  0  0
   -7.7913    1.1723   -0.0000 C   0  0  0  0  0  0  0  0  0  0  0  0
   -6.5007    3.4102   -0.0000 C   0  0  0  0  0  0  0  0  0  0  0  0
   -7.8032    2.6760   -0.0000 C   0  0  0  0  0  0  0  0  0  0  0  0
   -9.1057    3.4339   -0.0000 O   0  0  0  0  0  0  0  0  0  0  0  0
   -9.1175    4.9377   -0.0000 C   0  0  0  0  0  0  0  0  0  0  0  0
  -10.4200    5.6955   -0.0000 C   0  0  0  0  0  0  0  0  0  0  0  0
  1  2  1  0  0  0  0
  1  3  1  0  0  0  0
  2  4  2  0  0  0  0
  2  5  1  0  0  0  0
  3  6  1  0  0  0  0
  3  7  1  0  0  0  0
  4  8  1  0  0  0  0
  5  9  2  0  0  0  0
  6 10  2  0  0  0  0
  6 11  1  0  0  0  0
  7 12  1  0  0  0  0
  8 13  2  0  0  0  0
  8 14  1  0  0  0  0
  9 15  1  0  0  0  0
 11 16  1  0  0  0  0
 12 17  2  0  0  0  0
 16 18  2  0  0  0  0
 16 19  1  0  0  0  0
 18 20  1  0  0  0  0
 19 21  2  0  0  0  0
 20 22  2  0  0  0  0
 22 23  1  0  0  0  0
 23 24  1  0  0  0  0
 24 25  1  0  0  0  0
  9 13  1  0  0  0  0
 11 12  1  0  0  0  0
 21 22  1  0  0  0  0
M  END
>  <MolRegNo>
349431

>  <m>
=

>  <Value>
3.3113e12

>  <Unit>
nM

>  <Type>
IC50

>  <Ligand Efficiency>


>  <Binding Efficiency>


>  <Surface Efficiency>


>  <Assay Index>
262926

>  <Assay Category>


>  <Assay Organism>
SARS coronavirus

>  <Target ID>
20012

>  <Target Name>
SARS coronavirus 3C-like proteinase

>  <Target Organism>
SARS coronavirus

>  <Target Description>
Target is a single protein chain

>  <Sequence Accession>
P0C6U8

>  <Reference>
J. Med. Chem. 49 (12), 3485-3495 (2006)

>  <Pubmed ID>
16759091

>  <DOI>
10.1021/jm050852f

>  <InChI-Key>
DMJQWIMLNPOFCL-UHFFFAOYSA-N

>  <Molecular Formula>
C18H19N3O3S

>  <Monoisotopic Mass>
357.114712

>  <Druglikeness>
3.0684

$$$$
Compound 105
Actelion Java MolfileCreator 1.0

 25 27  0  0  0  0  0  0  0  0999 V2000
    0.0000   -0.0000   -0.0000 S   0  0  0  0  0  0  0  0  0  0  0  0
    0.5920    1.3735   -0.0000 C   0  0  0  0  0  0  0  0  0  0  0  0
   -1.4920   -0.1421   -0.0000 C   0  0  0  0  0  0  0  0  0  0  0  0
    2.0603    1.5393   -0.0000 N   0  0  0  0  0  0  0  0  0  0  0  0
   -0.2960    2.5813   -0.0000 N   0  0  0  0  0  0  0  0  0  0  0  0
   -2.4984    0.9828   -0.0000 C   0  0  0  0  0  0  0  0  0  0  0  0
   -2.2498   -1.4209   -0.0000 C   0  0  0  0  0  0  0  0  0  0  0  0
    2.6524    2.9129   -0.0000 C   0  0  0  0  0  0  0  0  0  0  0  0
    0.2960    3.9549   -0.0000 C   0  0  0  0  0  0  0  0  0  0  0  0
   -2.2024    2.4511   -0.0000 O   0  0  0  0  0  0  0  0  0  0  0  0
   -3.8720    0.3908   -0.0000 N   0  0  0  0  0  0  0  0  0  0  0  0
   -3.7180   -1.1012   -0.0000 C   0  0  0  0  0  0  0  0  0  0  0  0
    1.7643    4.1325   -0.0000 C   0  0  0  0  0  0  0  0  0  0  0  0
    4.1206    3.0786   -0.0000 C   0  0  0  0  0  0  0  0  0  0  0  0
   -0.6039    5.1745   -0.0000 C   0  0  0  0  0  0  0  0  0  0  0  0
   -5.1745    1.1486   -0.0000 C   0  0  0  0  0  0  0  0  0  0  0  0
   -4.8429   -2.0958   -0.0000 O   0  0  0  0  0  0  0  0  0  0  0  0
   -6.4888    0.4144   -0.0000 C   0  0  0  0  0  0  0  0  0  0  0  0
   -5.1863    2.6642   -0.0000 C   0  0  0  0  0  0  0  0  0  0  0  0
   -7.7913    1.1723   -0.0000 C   0  0  0  0  0  0  0  0  0  0  0  0
   -6.5007    3.4102   -0.0000 C   0  0  0  0  0  0  0  0  0  0  0  0
   -7.8032    2.6760   -0.0000 C   0  0  0  0  0  0  0  0  0  0  0  0
   -9.1057    3.4339   -0.0000 O   0  0  0  0  0  0  0  0  0  0  0  0
   -9.1175    4.9377   -0.0000 C   0  0  0  0  0  0  0  0  0  0  0  0
  -10.4200    5.6955   -0.0000 C   0  0  0  0  0  0  0  0  0  0  0  0
  1  2  1  0  0  0  0
  1  3  1  0  0  0  0
  2  4  2  0  0  0  0
  2  5  1  0  0  0  0
  3  6  1  0  0  0  0
  3  7  1  0  0  0  0
  4  8  1  0  0  0  0
  5  9  2  0  0  0  0
  6 10  2  0  0  0  0
  6 11  1  0  0  0  0
  7 12  1  0  0  0  0
  8 13  2  0  0  0  0
  8 14  1  0  0  0  0
  9 15  1  0  0  0  0
 11 16  1  0  0  0  0
 12 17  2  0  0  0  0
 16 18  2  0  0  0  0
 16 19  1  0  0  0  0
 18 20  1  0  0  0  0
 19 21  2  0  0  0  0
 20 22  2  0  0  0  0
 22 23  1  0  0  0  0
 23 24  1  0  0  0  0
 24 25  1  0  0  0  0
  9 13  1  0  0  0  0
 11 12  1  0  0  0  0
 21 22  1  0  0  0  0
M  END
>  <MolRegNo>
349431

>  <m>
=

>  <Value>
3.0e5

>  <Unit>
nM

>  <Type>
IC50

>  <Ligand Efficiency>


>  <Binding Efficiency>


>  <Surface Efficiency>


>  <Assay Index>
262926

>  <Assay Category>


>  <Assay Organism>
SARS coronavirus

>  <Target ID>
20012

>  <Target Name>
SARS coronavirus 3C-like proteinase

>  <Target Organism>
SARS coronavirus

>  <Target Description>
Target is a single protein chain

>  <Sequence Accession>
P0C6U8

>  <Reference>
J. Med. Chem. 49 (12), 3485-3495 (2006)

>  <Pubmed ID>
16759091

>  <DOI>
10.1021/jm050852f

>  <InChI-Key>
DMJQWIMLNPOFCL-UHFFFAOYSA-N

>  <Molecular Formula>
C18H19N3O3S

>  <Monoisotopic Mass>
357.114712

>  <Druglikeness>
3.0684

$$$$
Compound 106
Actelion Java MolfileCreator 1.0

 22 24  0  0  0  0  0  0  0  0999 V2000
    0.0000   -0.0000   -0.0000 Cl  0  0  0  0  0  0  0  0  0  0  0  0
   -1.0691   -0.6006   -0.0000 C   0  0  0  0  0  0  0  0  0  0  0  0
   -2.4025    0.1682   -0.0000 C   0  0  0  0  0  0  0  0  0  0  0  0
   -1.0811   -2.1142   -0.0000 C   0  0  0  0  0  0  0  0  0  0  0  0
   -3.7359   -0.5766   -0.0000 C   0  0  0  0  0  0  0  0  0  0  0  0
   -2.4145   -2.8590   -0.0000 C   0  0  0  0  0  0  0  0  0  0  0  0
   -3.7479   -2.0902   -0.0000 C   0  0  0  0  0  0  0  0  0  0  0  0
   -5.0813   -2.8470   -0.0000 C   0  0  0  0  0  0  0  0  0  0  0  0
   -5.0933   -4.3606   -0.0000 N   0  0  0  0  0  0  0  0  0  0  0  0
   -6.4147   -2.0782   -0.0000 C   0  0  0  0  0  0  0  0  0  0  0  0
   -6.4267   -5.1173   -0.0000 C   0  0  0  0  0  0  0  0  0  0  0  0
   -3.7840   -5.1053   -0.0000 C   0  0  0  0  0  0  0  0  0  0  0  0
   -7.7481   -2.8229   -0.0000 C   0  0  0  0  0  0  0  0  0  0  0  0
   -6.4267   -0.5406   -0.0000 C   0  0  0  0  0  0  0  0  0  0  0  0
   -6.4387   -6.6309   -0.0000 C   0  0  0  0  0  0  0  0  0  0  0  0
   -3.7960   -6.6189   -0.0000 C   0  0  0  0  0  0  0  0  0  0  0  0
   -9.0815   -2.0541   -0.0000 C   0  0  0  0  0  0  0  0  0  0  0  0
   -7.7601    0.2282   -0.0000 C   0  0  0  0  0  0  0  0  0  0  0  0
   -5.1294   -7.3757   -0.0000 N   0  0  0  0  0  0  0  0  0  0  0  0
   -9.0935   -0.5165   -0.0000 C   0  0  0  0  0  0  0  0  0  0  0  0
   -5.1294   -8.8893   -0.0000 C   0  0  0  0  0  0  0  0  0  0  0  0
   -4.0843   -9.4779   -0.0000 C   0  0  0  0  0  0  0  0  0  0  0  0
  1  2  1  0  0  0  0
  2  3  2  0  0  0  0
  2  4  1  0  0  0  0
  3  5  1  0  0  0  0
  4  6  2  0  0  0  0
  5  7  2  0  0  0  0
  7  8  1  0  0  0  0
  8  9  1  1  0  0  0
  8 10  1  0  0  0  0
  9 11  1  0  0  0  0
  9 12  1  0  0  0  0
 10 13  2  0  0  0  0
 10 14  1  0  0  0  0
 11 15  1  0  0  0  0
 12 16  1  0  0  0  0
 13 17  1  0  0  0  0
 14 18  2  0  0  0  0
 15 19  1  0  0  0  0
 17 20  2  0  0  0  0
 19 21  1  0  0  0  0
 21 22  1  0  0  0  0
  6  7  1  0  0  0  0
 16 19  1  0  0  0  0
 18 20  1  0  0  0  0
M  END
>  <MolRegNo>
2072560

>  <m>
>=

>  <Value>
1000

>  <Unit>
nM

>  <Type>
EC50

>  <Ligand Efficiency>


>  <Binding Efficiency>


>  <Surface Efficiency>


>  <Assay Index>
994860

>  <Assay Category>


>  <Assay Organism>
SARS coronavirus

>  <Target ID>
100499

>  <Target Name>
SARS coronavirus

>  <Target Organism>
SARS coronavirus

>  <Target Description>
Target is a complete organism

>  <Sequence Accession>


>  <Reference>
J. Med. Chem. 59 (3), 841-853 (2016)

>  <Pubmed ID>
26599718

>  <DOI>
10.1021/acs.jmedchem.5b00752

>  <InChI-Key>
DNCBAXHUOSCWMJ-IBGZPJMESA-N

>  <Molecular Formula>
C19H23N2Cl

>  <Monoisotopic Mass>
314.154975

>  <Druglikeness>
6.9215

$$$$
Compound 107
Actelion Java MolfileCreator 1.0

 15 16  0  0  0  0  0  0  0  0999 V2000
    0.0000   -0.0000   -0.0000 Br  0  0  0  0  0  0  0  0  0  0  0  0
   -0.0473   -1.4899   -0.0000 C   0  0  0  0  0  0  0  0  0  0  0  0
    1.2297   -2.2585   -0.0000 C   0  0  0  0  0  0  0  0  0  0  0  0
   -1.3716   -2.1993   -0.0000 C   0  0  0  0  0  0  0  0  0  0  0  0
    1.1824   -3.7483   -0.0000 N   0  0  0  0  0  0  0  0  0  0  0  0
   -1.4071   -3.6774   -0.0000 C   0  0  0  0  0  0  0  0  0  0  0  0
   -0.1419   -4.4578   -0.0000 C   0  0  0  0  0  0  0  0  0  0  0  0
   -2.7314   -4.3868   -0.0000 C   0  0  0  0  0  0  0  0  0  0  0  0
   -4.0203   -3.5946   -0.0000 C   0  0  0  0  0  0  0  0  0  0  0  0
   -3.9966   -2.0811   -0.0000 O   0  0  0  0  0  0  0  0  0  0  0  0
   -5.3446   -4.3041   -0.0000 C   0  0  0  0  0  0  0  0  0  0  0  0
   -6.7162   -3.6537   -0.0000 O   0  0  0  0  0  0  0  0  0  0  0  0
   -5.5456   -5.7821   -0.0000 C   0  0  0  0  0  0  0  0  0  0  0  0
   -7.7568   -4.7416   -0.0000 C   0  0  0  0  0  0  0  0  0  0  0  0
   -7.0355   -6.0541   -0.0000 C   0  0  0  0  0  0  0  0  0  0  0  0
  1  2  1  0  0  0  0
  2  3  2  0  0  0  0
  2  4  1  0  0  0  0
  3  5  1  0  0  0  0
  4  6  2  0  0  0  0
  5  7  2  0  0  0  0
  6  8  1  0  0  0  0
  8  9  1  0  0  0  0
  9 10  2  0  0  0  0
  9 11  1  0  0  0  0
 11 12  1  0  0  0  0
 11 13  2  0  0  0  0
 12 14  1  0  0  0  0
 13 15  1  0  0  0  0
  6  7  1  0  0  0  0
 14 15  2  0  0  0  0
M  END
>  <MolRegNo>
371892

>  <m>
<

>  <Value>
10

>  <Unit>
%

>  <Type>
Inhibition

>  <Ligand Efficiency>


>  <Binding Efficiency>


>  <Surface Efficiency>


>  <Assay Index>
278390

>  <Assay Category>


>  <Assay Organism>
SARS coronavirus

>  <Target ID>
20012

>  <Target Name>
SARS coronavirus 3C-like proteinase

>  <Target Organism>
SARS coronavirus

>  <Target Description>
Target is a single protein chain

>  <Sequence Accession>
P0C6U8

>  <Reference>
J. Med. Chem. 50 (8), 1850-1864 (2007)

>  <Pubmed ID>
17381079

>  <DOI>
10.1021/jm061425k

>  <InChI-Key>
DOAWCJCMMHKJPC-UHFFFAOYSA-N

>  <Molecular Formula>
C11H8NO2Br

>  <Monoisotopic Mass>
264.973840

>  <Druglikeness>
-1.4382

$$$$
Compound 108
Actelion Java MolfileCreator 1.0

 26 27  0  0  1  0  0  0  0  0999 V2000
    0.0000   -0.0000   -0.0000 O   0  0  0  0  0  0  0  0  0  0  0  0
    0.0000    1.5211   -0.0000 C   0  0  0  0  0  0  0  0  0  0  0  0
   -1.3191    2.2817   -0.0000 O   0  0  0  0  0  0  0  0  0  0  0  0
    1.2834    2.2817   -0.0000 C   0  0  0  0  0  0  0  0  0  0  0  0
   -1.3310    3.8028   -0.0000 C   0  0  0  0  0  0  0  0  0  0  0  0
    2.0202    3.6007   -0.0000 N   0  0  0  0  0  0  0  0  0  0  0  0
    2.7808    2.2935   -0.0000 C   0  0  0  0  0  0  0  0  0  0  0  0
   -2.6500    4.5633   -0.0000 C   0  0  0  0  0  0  0  0  0  0  0  0
    4.0642    1.5686   -0.0000 C   0  0  0  0  0  0  0  0  0  0  0  0
    4.0761    0.0832   -0.0000 O   0  0  0  0  0  0  0  0  0  0  0  0
    5.3595    2.3530   -0.0000 N   0  0  0  0  0  0  0  0  0  0  0  0
    6.6429    1.6162   -0.0000 C   0  0  0  0  0  0  0  0  0  0  0  0
    7.9382    2.3767   -0.0000 C   0  0  0  0  0  0  0  0  0  0  0  0
    6.6192    0.1188   -0.0000 C   0  0  0  0  0  0  0  0  0  0  0  0
    7.9264    3.8859   -0.0000 O   0  0  0  0  0  0  0  0  0  0  0  0
    9.2217    1.6162   -0.0000 O   0  0  0  0  0  0  0  0  0  0  0  0
    5.3001   -0.6061   -0.0000 C   0  0  0  0  0  0  0  0  0  0  0  0
    7.9145   -0.6298   -0.0000 C   0  0  0  0  0  0  0  0  0  0  0  0
   10.5289    2.3886   -0.0000 C   0  0  0  0  0  0  0  0  0  0  0  0
    5.2763   -2.1034   -0.0000 C   0  0  0  0  0  0  0  0  0  0  0  0
   11.8123    1.6399   -0.0000 C   0  0  0  0  0  0  0  0  0  0  0  0
   11.7885    0.1545   -0.0000 C   0  0  0  0  0  0  0  0  0  0  0  0
   13.0957    2.3886   -0.0000 C   0  0  0  0  0  0  0  0  0  0  0  0
   13.0720   -0.6061   -0.0000 C   0  0  0  0  0  0  0  0  0  0  0  0
   14.3792    1.6518   -0.0000 C   0  0  0  0  0  0  0  0  0  0  0  0
   14.3673    0.1545   -0.0000 C   0  0  0  0  0  0  0  0  0  0  0  0
  1  2  2  0  0  0  0
  2  3  1  0  0  0  0
  4  2  1  1  0  0  0
  3  5  1  0  0  0  0
  4  6  1  0  0  0  0
  4  7  1  0  0  0  0
  5  8  1  0  0  0  0
  7  9  1  6  0  0  0
  9 10  2  0  0  0  0
  9 11  1  0  0  0  0
 12 11  1  6  0  0  0
 12 13  1  0  0  0  0
 12 14  1  0  0  0  0
 13 15  2  0  0  0  0
 13 16  1  0  0  0  0
 14 17  1  0  0  0  0
 14 18  1  1  0  0  0
 16 19  1  0  0  0  0
 17 20  1  0  0  0  0
 19 21  1  0  0  0  0
 21 22  2  0  0  0  0
 21 23  1  0  0  0  0
 22 24  1  0  0  0  0
 23 25  2  0  0  0  0
 24 26  2  0  0  0  0
  6  7  1  0  0  0  0
 25 26  1  0  0  0  0
M  END
>  <MolRegNo>
333456

>  <m>
<

>  <Value>
10

>  <Unit>
%

>  <Type>
Inhibition

>  <Ligand Efficiency>


>  <Binding Efficiency>


>  <Surface Efficiency>


>  <Assay Index>
254534

>  <Assay Category>


>  <Assay Organism>
SARS coronavirus

>  <Target ID>
20012

>  <Target Name>
SARS coronavirus 3C-like proteinase

>  <Target Organism>
SARS coronavirus

>  <Target Description>
Target is a single protein chain

>  <Sequence Accession>
P0C6U8

>  <Reference>
Bioorg. Med. Chem. Lett. 15 (24), 5365-5369 (2005)

>  <Pubmed ID>
16216498

>  <DOI>
10.1016/j.bmcl.2005.09.012

>  <InChI-Key>
DPDLYUXATYEMBK-HNKHHVNMSA-N

>  <Molecular Formula>
C19H26N2O5

>  <Monoisotopic Mass>
362.184173

>  <Druglikeness>
1.1704

$$$$
Compound 109
Actelion Java MolfileCreator 1.0

 35 36  0  0  0  0  0  0  0  0999 V2000
    0.0000   -0.0000   -0.0000 S   0  0  0  0  0  0  0  0  0  0  0  0
    0.7487   -1.2836   -0.0000 O   0  0  0  0  0  0  0  0  0  0  0  0
   -0.7725    1.3073   -0.0000 O   0  0  0  0  0  0  0  0  0  0  0  0
    1.2836    0.7725   -0.0000 C   0  0  0  0  0  0  0  0  0  0  0  0
   -1.3073   -0.7369   -0.0000 C   0  0  0  0  0  0  0  0  0  0  0  0
    2.5790    0.0357   -0.0000 C   0  0  0  0  0  0  0  0  0  0  0  0
    1.2598    2.2700   -0.0000 C   0  0  0  0  0  0  0  0  0  0  0  0
   -2.6146    0.0238   -0.0000 C   0  0  0  0  0  0  0  0  0  0  0  0
   -1.3192   -2.2343   -0.0000 C   0  0  0  0  0  0  0  0  0  0  0  0
    3.8625    0.8082   -0.0000 C   0  0  0  0  0  0  0  0  0  0  0  0
    2.5315    3.0425   -0.0000 C   0  0  0  0  0  0  0  0  0  0  0  0
   -3.9220   -0.7131   -0.0000 C   0  0  0  0  0  0  0  0  0  0  0  0
   -2.6384   -2.9712   -0.0000 C   0  0  0  0  0  0  0  0  0  0  0  0
    3.8388    2.3175   -0.0000 C   0  0  0  0  0  0  0  0  0  0  0  0
   -3.9339   -2.1987   -0.0000 C   0  0  0  0  0  0  0  0  0  0  0  0
    5.1223    3.0900   -0.0000 N   0  0  0  0  0  0  0  0  0  0  0  0
   -5.2412   -2.9355   -0.0000 N   0  0  0  0  0  0  0  0  0  0  0  0
    6.4178    2.3651   -0.0000 C   0  0  0  0  0  0  0  0  0  0  0  0
   -6.5604   -2.1868   -0.0000 C   0  0  0  0  0  0  0  0  0  0  0  0
    7.7013    3.1376   -0.0000 C   0  0  0  0  0  0  0  0  0  0  0  0
   -7.8677   -2.9355   -0.0000 C   0  0  0  0  0  0  0  0  0  0  0  0
    7.6776    4.6469   -0.0000 C   0  0  0  0  0  0  0  0  0  0  0  0
    8.9968    2.4126   -0.0000 C   0  0  0  0  0  0  0  0  0  0  0  0
   -7.8677   -4.4211   -0.0000 C   0  0  0  0  0  0  0  0  0  0  0  0
   -9.1869   -2.1868   -0.0000 C   0  0  0  0  0  0  0  0  0  0  0  0
    7.6419    6.1563   -0.0000 N   0  0  0  0  0  0  0  0  0  0  0  0
   10.2803    3.1851   -0.0000 O   0  0  0  0  0  0  0  0  0  0  0  0
    8.9968    0.9270   -0.0000 O   0  0  0  0  0  0  0  0  0  0  0  0
   -7.8558   -5.9067   -0.0000 N   0  0  0  0  0  0  0  0  0  0  0  0
   -9.2107   -0.6774   -0.0000 O   0  0  0  0  0  0  0  0  0  0  0  0
  -10.4942   -2.9355   -0.0000 O   0  0  0  0  0  0  0  0  0  0  0  0
   11.5758    2.4601   -0.0000 C   0  0  0  0  0  0  0  0  0  0  0  0
  -11.8135   -2.1868   -0.0000 C   0  0  0  0  0  0  0  0  0  0  0  0
   12.8593    3.2327   -0.0000 C   0  0  0  0  0  0  0  0  0  0  0  0
  -13.1208   -2.9355   -0.0000 C   0  0  0  0  0  0  0  0  0  0  0  0
  1  2  2  0  0  0  0
  1  3  2  0  0  0  0
  1  4  1  0  0  0  0
  1  5  1  0  0  0  0
  4  6  2  0  0  0  0
  4  7  1  0  0  0  0
  5  8  2  0  0  0  0
  5  9  1  0  0  0  0
  6 10  1  0  0  0  0
  7 11  2  0  0  0  0
  8 12  1  0  0  0  0
  9 13  2  0  0  0  0
 10 14  2  0  0  0  0
 12 15  2  0  0  0  0
 14 16  1  0  0  0  0
 15 17  1  0  0  0  0
 16 18  2  0  0  0  0
 17 19  1  0  0  0  0
 18 20  1  0  0  0  0
 19 21  2  0  0  0  0
 20 22  1  0  0  0  0
 20 23  2  0  0  0  0
 21 24  1  0  0  0  0
 21 25  1  0  0  0  0
 22 26  3  0  0  0  0
 23 27  1  0  0  0  0
 23 28  1  0  0  0  0
 24 29  3  0  0  0  0
 25 30  2  0  0  0  0
 25 31  1  0  0  0  0
 27 32  1  0  0  0  0
 31 33  1  0  0  0  0
 32 34  1  0  0  0  0
 33 35  1  0  0  0  0
 11 14  1  0  0  0  0
 13 15  1  0  0  0  0
M  END
>  <MolRegNo>
356371

>  <m>
=

>  <Value>
16000

>  <Unit>
nM

>  <Type>
IC50

>  <Ligand Efficiency>
0.19

>  <Binding Efficiency>
9.70

>  <Surface Efficiency>
2.96

>  <Assay Index>
266027

>  <Assay Category>


>  <Assay Organism>
SARS coronavirus

>  <Target ID>
20012

>  <Target Name>
SARS coronavirus 3C-like proteinase

>  <Target Organism>
SARS coronavirus

>  <Target Description>
Target is a single protein chain

>  <Sequence Accession>
P0C6U8

>  <Reference>
J. Med. Chem. 49 (17), 5154-5161 (2006)

>  <Pubmed ID>
16913704

>  <DOI>
10.1021/jm060207o

>  <InChI-Key>
DRMYXGNKNZPWAV-UHFFFAOYSA-N

>  <Molecular Formula>
C24H22N4O6S

>  <Monoisotopic Mass>
494.126006

>  <Druglikeness>
-7.4857

$$$$
Compound 110
Actelion Java MolfileCreator 1.0

 21 23  0  0  0  0  0  0  0  0999 V2000
    0.0000   -0.0000   -0.0000 Cl  0  0  0  0  0  0  0  0  0  0  0  0
    1.2812   -0.7355   -0.0000 C   0  0  0  0  0  0  0  0  0  0  0  0
    2.5624    0.0237   -0.0000 C   0  0  0  0  0  0  0  0  0  0  0  0
    1.2694   -2.2303   -0.0000 C   0  0  0  0  0  0  0  0  0  0  0  0
    3.8437   -0.7118   -0.0000 C   0  0  0  0  0  0  0  0  0  0  0  0
    2.5506    1.5304   -0.0000 C   0  0  0  0  0  0  0  0  0  0  0  0
    2.5506   -2.9658   -0.0000 C   0  0  0  0  0  0  0  0  0  0  0  0
    5.1249    0.0475   -0.0000 Cl  0  0  0  0  0  0  0  0  0  0  0  0
    3.8318   -2.2066   -0.0000 C   0  0  0  0  0  0  0  0  0  0  0  0
    3.8318    2.2777   -0.0000 S   0  0  0  0  0  0  0  0  0  0  0  0
    1.2338    2.2777   -0.0000 N   0  0  0  0  0  0  0  0  0  0  0  0
    3.8199    3.7844   -0.0000 C   0  0  0  0  0  0  0  0  0  0  0  0
    1.2219    3.7962   -0.0000 C   0  0  0  0  0  0  0  0  0  0  0  0
   -0.0712    1.5304   -0.0000 C   0  0  0  0  0  0  0  0  0  0  0  0
    2.5150    4.5436   -0.0000 C   0  0  0  0  0  0  0  0  0  0  0  0
   -0.0830    4.5555   -0.0000 O   0  0  0  0  0  0  0  0  0  0  0  0
   -1.3880    2.2777   -0.0000 C   0  0  0  0  0  0  0  0  0  0  0  0
   -1.5659    3.7725   -0.0000 O   0  0  0  0  0  0  0  0  0  0  0  0
   -2.7641    1.6608   -0.0000 C   0  0  0  0  0  0  0  0  0  0  0  0
   -3.0488    4.0928   -0.0000 C   0  0  0  0  0  0  0  0  0  0  0  0
   -3.7844    2.7760   -0.0000 C   0  0  0  0  0  0  0  0  0  0  0  0
  1  2  1  0  0  0  0
  2  3  2  0  0  0  0
  2  4  1  0  0  0  0
  3  5  1  0  0  0  0
  3  6  1  0  0  0  0
  4  7  2  0  0  0  0
  5  8  1  0  0  0  0
  5  9  2  0  0  0  0
  6 10  1  0  0  0  0
  6 11  1  0  0  0  0
 10 12  1  0  0  0  0
 11 13  1  0  0  0  0
 11 14  1  0  0  0  0
 12 15  1  0  0  0  0
 13 16  2  0  0  0  0
 14 17  1  0  0  0  0
 17 18  1  0  0  0  0
 17 19  2  0  0  0  0
 18 20  1  0  0  0  0
 19 21  1  0  0  0  0
  7  9  1  0  0  0  0
 13 15  1  0  0  0  0
 20 21  2  0  0  0  0
M  END
>  <MolRegNo>
453070

>  <m>
<=

>  <Value>
50

>  <Unit>
%

>  <Type>
Inhibition

>  <Ligand Efficiency>


>  <Binding Efficiency>


>  <Surface Efficiency>


>  <Assay Index>
406904

>  <Assay Category>


>  <Assay Organism>
SARS coronavirus

>  <Target ID>
101075

>  <Target Name>
Replicase polyprotein 1ab

>  <Target Organism>
SARS coronavirus

>  <Target Description>
Target is a single protein chain

>  <Sequence Accession>
P0C6X7

>  <Reference>
Bioorg. Med. Chem. Lett. 18 (23), 6110-6114 (2008)

>  <Pubmed ID>
18947995

>  <DOI>
10.1016/j.bmcl.2008.10.023

>  <InChI-Key>
DSELIJRCRNKWIU-UHFFFAOYSA-N

>  <Molecular Formula>
C15H13NO2Cl2S

>  <Monoisotopic Mass>
341.004403

>  <Druglikeness>
3.8962

$$$$
Compound 111
Actelion Java MolfileCreator 1.0

 18 19  0  0  0  0  0  0  0  0999 V2000
    0.0000   -0.0000   -0.0000 O   0  0  0  0  0  0  0  0  0  0  0  0
   -1.5032    0.0117   -0.0000 C   0  0  0  0  0  0  0  0  0  0  0  0
   -2.3957   -1.1979   -0.0000 N   0  0  0  0  0  0  0  0  0  0  0  0
   -2.3957    1.2331   -0.0000 C   0  0  0  0  0  0  0  0  0  0  0  0
   -3.8402   -0.7281   -0.0000 C   0  0  0  0  0  0  0  0  0  0  0  0
   -1.9494   -2.6071   -0.0000 C   0  0  0  0  0  0  0  0  0  0  0  0
   -1.9494    2.6658   -0.0000 O   0  0  0  0  0  0  0  0  0  0  0  0
   -3.8402    0.7751   -0.0000 C   0  0  0  0  0  0  0  0  0  0  0  0
   -5.1437   -1.4680   -0.0000 C   0  0  0  0  0  0  0  0  0  0  0  0
   -2.9594   -3.6992   -0.0000 C   0  0  0  0  0  0  0  0  0  0  0  0
   -5.1555    1.5267   -0.0000 C   0  0  0  0  0  0  0  0  0  0  0  0
   -6.4473   -0.7046   -0.0000 C   0  0  0  0  0  0  0  0  0  0  0  0
   -2.5131   -5.1085   -0.0000 C   0  0  0  0  0  0  0  0  0  0  0  0
   -6.4473    0.7868   -0.0000 C   0  0  0  0  0  0  0  0  0  0  0  0
   -3.5231   -6.2006   -0.0000 C   0  0  0  0  0  0  0  0  0  0  0  0
   -7.7508    1.5384   -0.0000 C   0  0  0  0  0  0  0  0  0  0  0  0
   -7.7625    3.0416   -0.0000 O   0  0  0  0  0  0  0  0  0  0  0  0
   -9.0543    0.7986   -0.0000 O   0  0  0  0  0  0  0  0  0  0  0  0
  1  2  2  0  0  0  0
  2  3  1  0  0  0  0
  2  4  1  0  0  0  0
  3  5  1  0  0  0  0
  3  6  1  0  0  0  0
  4  7  2  0  0  0  0
  4  8  1  0  0  0  0
  5  9  1  0  0  0  0
  6 10  1  0  0  0  0
  8 11  1  0  0  0  0
  9 12  2  0  0  0  0
 10 13  1  0  0  0  0
 11 14  2  0  0  0  0
 13 15  1  0  0  0  0
 14 16  1  0  0  0  0
 16 17  2  0  0  0  0
 16 18  1  0  0  0  0
  5  8  2  0  0  0  0
 12 14  1  0  0  0  0
M  END
>  <MolRegNo>
348565

>  <m>
<

>  <Value>
25

>  <Unit>
%

>  <Type>
Inhibition

>  <Ligand Efficiency>


>  <Binding Efficiency>


>  <Surface Efficiency>


>  <Assay Index>
262887

>  <Assay Category>


>  <Assay Organism>
SARS coronavirus

>  <Target ID>
20012

>  <Target Name>
SARS coronavirus 3C-like proteinase

>  <Target Organism>
SARS coronavirus

>  <Target Description>
Target is a single protein chain

>  <Sequence Accession>
P0C6U8

>  <Reference>
J. Med. Chem. 49 (12), 3440-3443 (2006)

>  <Pubmed ID>
16759084

>  <DOI>
10.1021/jm0602357

>  <InChI-Key>
DTLQFWOLEJQWJI-UHFFFAOYSA-N

>  <Molecular Formula>
C13H13NO4

>  <Monoisotopic Mass>
247.084459

>  <Druglikeness>
-1.7212

$$$$
Compound 112
Actelion Java MolfileCreator 1.0

 23 26  0  0  0  0  0  0  0  0999 V2000
    0.0000   -0.0000   -0.0000 I   0  0  0  0  0  0  0  0  0  0  0  0
    1.2927   -0.7421   -0.0000 C   0  0  0  0  0  0  0  0  0  0  0  0
    2.5735    0.0239   -0.0000 C   0  0  0  0  0  0  0  0  0  0  0  0
    1.2808   -2.2383   -0.0000 C   0  0  0  0  0  0  0  0  0  0  0  0
    3.8782   -0.7062   -0.0000 C   0  0  0  0  0  0  0  0  0  0  0  0
    2.5735   -2.9805   -0.0000 C   0  0  0  0  0  0  0  0  0  0  0  0
    5.3146   -0.2274   -0.0000 C   0  0  0  0  0  0  0  0  0  0  0  0
    3.8662   -2.2144   -0.0000 C   0  0  0  0  0  0  0  0  0  0  0  0
    5.7694    1.2209   -0.0000 O   0  0  0  0  0  0  0  0  0  0  0  0
    6.2003   -1.4483   -0.0000 C   0  0  0  0  0  0  0  0  0  0  0  0
    5.3026   -2.6692   -0.0000 N   0  0  0  0  0  0  0  0  0  0  0  0
    7.6965   -1.4364   -0.0000 O   0  0  0  0  0  0  0  0  0  0  0  0
    5.7574   -4.0936   -0.0000 C   0  0  0  0  0  0  0  0  0  0  0  0
    7.2177   -4.3929   -0.0000 C   0  0  0  0  0  0  0  0  0  0  0  0
    8.2112   -3.2677   -0.0000 C   0  0  0  0  0  0  0  0  0  0  0  0
    7.6726   -5.8173   -0.0000 C   0  0  0  0  0  0  0  0  0  0  0  0
    9.6715   -3.5670   -0.0000 C   0  0  0  0  0  0  0  0  0  0  0  0
    9.1329   -6.1165   -0.0000 C   0  0  0  0  0  0  0  0  0  0  0  0
   10.1264   -4.9914   -0.0000 C   0  0  0  0  0  0  0  0  0  0  0  0
   10.6650   -2.4299   -0.0000 C   0  0  0  0  0  0  0  0  0  0  0  0
   11.5867   -5.2906   -0.0000 C   0  0  0  0  0  0  0  0  0  0  0  0
   12.1253   -2.7171   -0.0000 C   0  0  0  0  0  0  0  0  0  0  0  0
   12.5802   -4.1535   -0.0000 C   0  0  0  0  0  0  0  0  0  0  0  0
  1  2  1  0  0  0  0
  2  3  2  0  0  0  0
  2  4  1  0  0  0  0
  3  5  1  0  0  0  0
  4  6  2  0  0  0  0
  5  7  1  0  0  0  0
  5  8  2  0  0  0  0
  7  9  2  0  0  0  0
  7 10  1  0  0  0  0
  8 11  1  0  0  0  0
 10 12  2  0  0  0  0
 11 13  1  0  0  0  0
 13 14  1  0  0  0  0
 14 15  2  0  0  0  0
 14 16  1  0  0  0  0
 15 17  1  0  0  0  0
 16 18  2  0  0  0  0
 17 19  1  0  0  0  0
 17 20  2  0  0  0  0
 19 21  2  0  0  0  0
 20 22  1  0  0  0  0
 21 23  1  0  0  0  0
  6  8  1  0  0  0  0
 10 11  1  0  0  0  0
 18 19  1  0  0  0  0
 22 23  2  0  0  0  0
M  END
>  <MolRegNo>
349142

>  <m>
=

>  <Value>
1100

>  <Unit>
nM

>  <Type>
IC50

>  <Ligand Efficiency>
0.35

>  <Binding Efficiency>
14.42

>  <Surface Efficiency>
15.94

>  <Assay Index>
262886

>  <Assay Category>


>  <Assay Organism>
SARS coronavirus

>  <Target ID>
20012

>  <Target Name>
SARS coronavirus 3C-like proteinase

>  <Target Organism>
SARS coronavirus

>  <Target Description>
Target is a single protein chain

>  <Sequence Accession>
P0C6U8

>  <Reference>
J. Med. Chem. 49 (12), 3440-3443 (2006)

>  <Pubmed ID>
16759084

>  <DOI>
10.1021/jm0602357

>  <InChI-Key>
DTZJIZCNNNVZIT-UHFFFAOYSA-N

>  <Molecular Formula>
C19H12NO2I

>  <Monoisotopic Mass>
412.991277

>  <Druglikeness>
0.55214

$$$$
Compound 113
Actelion Java MolfileCreator 1.0

 23 26  0  0  0  0  0  0  0  0999 V2000
    0.0000   -0.0000   -0.0000 I   0  0  0  0  0  0  0  0  0  0  0  0
    1.2927   -0.7421   -0.0000 C   0  0  0  0  0  0  0  0  0  0  0  0
    2.5735    0.0239   -0.0000 C   0  0  0  0  0  0  0  0  0  0  0  0
    1.2808   -2.2383   -0.0000 C   0  0  0  0  0  0  0  0  0  0  0  0
    3.8782   -0.7062   -0.0000 C   0  0  0  0  0  0  0  0  0  0  0  0
    2.5735   -2.9805   -0.0000 C   0  0  0  0  0  0  0  0  0  0  0  0
    5.3146   -0.2274   -0.0000 C   0  0  0  0  0  0  0  0  0  0  0  0
    3.8662   -2.2144   -0.0000 C   0  0  0  0  0  0  0  0  0  0  0  0
    5.7694    1.2209   -0.0000 O   0  0  0  0  0  0  0  0  0  0  0  0
    6.2003   -1.4483   -0.0000 C   0  0  0  0  0  0  0  0  0  0  0  0
    5.3026   -2.6692   -0.0000 N   0  0  0  0  0  0  0  0  0  0  0  0
    7.6965   -1.4364   -0.0000 O   0  0  0  0  0  0  0  0  0  0  0  0
    5.7574   -4.0936   -0.0000 C   0  0  0  0  0  0  0  0  0  0  0  0
    7.2177   -4.3929   -0.0000 C   0  0  0  0  0  0  0  0  0  0  0  0
    8.2112   -3.2677   -0.0000 C   0  0  0  0  0  0  0  0  0  0  0  0
    7.6726   -5.8173   -0.0000 C   0  0  0  0  0  0  0  0  0  0  0  0
    9.6715   -3.5670   -0.0000 C   0  0  0  0  0  0  0  0  0  0  0  0
    9.1329   -6.1165   -0.0000 C   0  0  0  0  0  0  0  0  0  0  0  0
   10.1264   -4.9914   -0.0000 C   0  0  0  0  0  0  0  0  0  0  0  0
   10.6650   -2.4299   -0.0000 C   0  0  0  0  0  0  0  0  0  0  0  0
   11.5867   -5.2906   -0.0000 C   0  0  0  0  0  0  0  0  0  0  0  0
   12.1253   -2.7171   -0.0000 C   0  0  0  0  0  0  0  0  0  0  0  0
   12.5802   -4.1535   -0.0000 C   0  0  0  0  0  0  0  0  0  0  0  0
  1  2  1  0  0  0  0
  2  3  2  0  0  0  0
  2  4  1  0  0  0  0
  3  5  1  0  0  0  0
  4  6  2  0  0  0  0
  5  7  1  0  0  0  0
  5  8  2  0  0  0  0
  7  9  2  0  0  0  0
  7 10  1  0  0  0  0
  8 11  1  0  0  0  0
 10 12  2  0  0  0  0
 11 13  1  0  0  0  0
 13 14  1  0  0  0  0
 14 15  2  0  0  0  0
 14 16  1  0  0  0  0
 15 17  1  0  0  0  0
 16 18  2  0  0  0  0
 17 19  1  0  0  0  0
 17 20  2  0  0  0  0
 19 21  2  0  0  0  0
 20 22  1  0  0  0  0
 21 23  1  0  0  0  0
  6  8  1  0  0  0  0
 10 11  1  0  0  0  0
 18 19  1  0  0  0  0
 22 23  2  0  0  0  0
M  END
>  <MolRegNo>
349142

>  <m>
=

>  <Value>
1100

>  <Unit>
nM

>  <Type>
Ki

>  <Ligand Efficiency>
0.35

>  <Binding Efficiency>
14.42

>  <Surface Efficiency>
15.94

>  <Assay Index>
262886

>  <Assay Category>


>  <Assay Organism>
SARS coronavirus

>  <Target ID>
20012

>  <Target Name>
SARS coronavirus 3C-like proteinase

>  <Target Organism>
SARS coronavirus

>  <Target Description>
Target is a single protein chain

>  <Sequence Accession>
P0C6U8

>  <Reference>
J. Med. Chem. 49 (12), 3440-3443 (2006)

>  <Pubmed ID>
16759084

>  <DOI>
10.1021/jm0602357

>  <InChI-Key>
DTZJIZCNNNVZIT-UHFFFAOYSA-N

>  <Molecular Formula>
C19H12NO2I

>  <Monoisotopic Mass>
412.991277

>  <Druglikeness>
0.55214

$$$$
Compound 114
Actelion Java MolfileCreator 1.0

 23 26  0  0  0  0  0  0  0  0999 V2000
    0.0000   -0.0000   -0.0000 I   0  0  0  0  0  0  0  0  0  0  0  0
    1.2927   -0.7421   -0.0000 C   0  0  0  0  0  0  0  0  0  0  0  0
    2.5735    0.0239   -0.0000 C   0  0  0  0  0  0  0  0  0  0  0  0
    1.2808   -2.2383   -0.0000 C   0  0  0  0  0  0  0  0  0  0  0  0
    3.8782   -0.7062   -0.0000 C   0  0  0  0  0  0  0  0  0  0  0  0
    2.5735   -2.9805   -0.0000 C   0  0  0  0  0  0  0  0  0  0  0  0
    5.3146   -0.2274   -0.0000 C   0  0  0  0  0  0  0  0  0  0  0  0
    3.8662   -2.2144   -0.0000 C   0  0  0  0  0  0  0  0  0  0  0  0
    5.7694    1.2209   -0.0000 O   0  0  0  0  0  0  0  0  0  0  0  0
    6.2003   -1.4483   -0.0000 C   0  0  0  0  0  0  0  0  0  0  0  0
    5.3026   -2.6692   -0.0000 N   0  0  0  0  0  0  0  0  0  0  0  0
    7.6965   -1.4364   -0.0000 O   0  0  0  0  0  0  0  0  0  0  0  0
    5.7574   -4.0936   -0.0000 C   0  0  0  0  0  0  0  0  0  0  0  0
    7.2177   -4.3929   -0.0000 C   0  0  0  0  0  0  0  0  0  0  0  0
    8.2112   -3.2677   -0.0000 C   0  0  0  0  0  0  0  0  0  0  0  0
    7.6726   -5.8173   -0.0000 C   0  0  0  0  0  0  0  0  0  0  0  0
    9.6715   -3.5670   -0.0000 C   0  0  0  0  0  0  0  0  0  0  0  0
    9.1329   -6.1165   -0.0000 C   0  0  0  0  0  0  0  0  0  0  0  0
   10.1264   -4.9914   -0.0000 C   0  0  0  0  0  0  0  0  0  0  0  0
   10.6650   -2.4299   -0.0000 C   0  0  0  0  0  0  0  0  0  0  0  0
   11.5867   -5.2906   -0.0000 C   0  0  0  0  0  0  0  0  0  0  0  0
   12.1253   -2.7171   -0.0000 C   0  0  0  0  0  0  0  0  0  0  0  0
   12.5802   -4.1535   -0.0000 C   0  0  0  0  0  0  0  0  0  0  0  0
  1  2  1  0  0  0  0
  2  3  2  0  0  0  0
  2  4  1  0  0  0  0
  3  5  1  0  0  0  0
  4  6  2  0  0  0  0
  5  7  1  0  0  0  0
  5  8  2  0  0  0  0
  7  9  2  0  0  0  0
  7 10  1  0  0  0  0
  8 11  1  0  0  0  0
 10 12  2  0  0  0  0
 11 13  1  0  0  0  0
 13 14  1  0  0  0  0
 14 15  2  0  0  0  0
 14 16  1  0  0  0  0
 15 17  1  0  0  0  0
 16 18  2  0  0  0  0
 17 19  1  0  0  0  0
 17 20  2  0  0  0  0
 19 21  2  0  0  0  0
 20 22  1  0  0  0  0
 21 23  1  0  0  0  0
  6  8  1  0  0  0  0
 10 11  1  0  0  0  0
 18 19  1  0  0  0  0
 22 23  2  0  0  0  0
M  END
>  <MolRegNo>
349142

>  <m>
=

>  <Value>
1096.5

>  <Unit>
nM

>  <Type>
Ki

>  <Ligand Efficiency>


>  <Binding Efficiency>


>  <Surface Efficiency>


>  <Assay Index>
262886

>  <Assay Category>


>  <Assay Organism>
SARS coronavirus

>  <Target ID>
20012

>  <Target Name>
SARS coronavirus 3C-like proteinase

>  <Target Organism>
SARS coronavirus

>  <Target Description>
Target is a single protein chain

>  <Sequence Accession>
P0C6U8

>  <Reference>
J. Med. Chem. 49 (12), 3440-3443 (2006)

>  <Pubmed ID>
16759084

>  <DOI>
10.1021/jm0602357

>  <InChI-Key>
DTZJIZCNNNVZIT-UHFFFAOYSA-N

>  <Molecular Formula>
C19H12NO2I

>  <Monoisotopic Mass>
412.991277

>  <Druglikeness>
0.55214

$$$$
Compound 115
Actelion Java MolfileCreator 1.0

 20 22  0  0  0  0  0  0  0  0999 V2000
    0.0000   -0.0000   -0.0000 O   0  0  0  0  0  0  0  0  0  0  0  0
    1.2192   -0.8690   -0.0000 C   0  0  0  0  0  0  0  0  0  0  0  0
   -1.1803   -0.8690   -0.0000 C   0  0  0  0  0  0  0  0  0  0  0  0
    1.6991    0.5058   -0.0000 C   0  0  0  0  0  0  0  0  0  0  0  0
    0.7782   -2.2179   -0.0000 C   0  0  0  0  0  0  0  0  0  0  0  0
    2.6200   -1.3619   -0.0000 C   0  0  0  0  0  0  0  0  0  0  0  0
   -0.7134   -2.2439   -0.0000 C   0  0  0  0  0  0  0  0  0  0  0  0
   -2.6200   -0.4151   -0.0000 C   0  0  0  0  0  0  0  0  0  0  0  0
    3.0221    0.9079   -0.0000 N   0  0  0  0  0  0  0  0  0  0  0  0
    0.8431    1.8548   -0.0000 C   0  0  0  0  0  0  0  0  0  0  0  0
    1.2322   -3.6187   -0.0000 O   0  0  0  0  0  0  0  0  0  0  0  0
   -1.1803   -3.6447   -0.0000 O   0  0  0  0  0  0  0  0  0  0  0  0
   -2.9702    1.0506   -0.0000 O   0  0  0  0  0  0  0  0  0  0  0  0
    4.2802    0.0778   -0.0000 N   0  0  0  0  0  0  0  0  0  0  0  0
    3.0869    2.5681   -0.0000 C   0  0  0  0  0  0  0  0  0  0  0  0
    1.8029    3.0740   -0.0000 C   0  0  0  0  0  0  0  0  0  0  0  0
    5.6551    0.8042   -0.0000 C   0  0  0  0  0  0  0  0  0  0  0  0
    4.3710    3.2556   -0.0000 C   0  0  0  0  0  0  0  0  0  0  0  0
    5.7070    2.3995   -0.0000 N   0  0  0  0  0  0  0  0  0  0  0  0
    4.4099    4.7472   -0.0000 N   0  0  0  0  0  0  0  0  0  0  0  0
  1  2  1  0  0  0  0
  1  3  1  0  0  0  0
  2  4  1  6  0  0  0
  2  5  1  0  0  0  0
  2  6  1  0  0  0  0
  3  7  1  0  0  0  0
  3  8  1  6  0  0  0
  4  9  1  0  0  0  0
  4 10  2  0  0  0  0
  5 11  1  1  0  0  0
  7 12  1  1  0  0  0
  8 13  1  0  0  0  0
  9 14  1  0  0  0  0
  9 15  1  0  0  0  0
 10 16  1  0  0  0  0
 14 17  2  0  0  0  0
 15 18  1  0  0  0  0
 17 19  1  0  0  0  0
 18 20  1  0  0  0  0
  5  7  1  0  0  0  0
 15 16  2  0  0  0  0
 18 19  2  0  0  0  0
M  END
>  <MolRegNo>
1334475

>  <m>
>

>  <Value>
30000

>  <Unit>
nM

>  <Type>
EC50

>  <Ligand Efficiency>


>  <Binding Efficiency>


>  <Surface Efficiency>


>  <Assay Index>
648311

>  <Assay Category>


>  <Assay Organism>
SARS coronavirus

>  <Target ID>
100499

>  <Target Name>
SARS coronavirus

>  <Target Organism>
SARS coronavirus

>  <Target Description>
Target is a complete organism

>  <Sequence Accession>


>  <Reference>
Bioorg. Med. Chem. Lett. 22 (8), 2705-2707 (2012)

>  <Pubmed ID>
22446091

>  <DOI>
10.1016/j.bmcl.2012.02.105

>  <InChI-Key>
DUADFEIIDXPYEK-CKIYVRPFSA-N

>  <Molecular Formula>
C12H16N4O4

>  <Monoisotopic Mass>
280.117156

>  <Druglikeness>
2.1149

$$$$
Compound 116
Actelion Java MolfileCreator 1.0

 22 24  0  0  0  0  0  0  0  0999 V2000
    0.0000   -0.0000   -0.0000 O   0  0  0  0  0  0  0  0  0  0  0  0
   -0.0357   -1.4866   -0.0000 C   0  0  0  0  0  0  0  0  0  0  0  0
    1.2487   -2.2477   -0.0000 C   0  0  0  0  0  0  0  0  0  0  0  0
   -1.3676   -2.2239   -0.0000 C   0  0  0  0  0  0  0  0  0  0  0  0
    1.2130   -3.7462   -0.0000 C   0  0  0  0  0  0  0  0  0  0  0  0
    2.5450   -1.4985   -0.0000 C   0  0  0  0  0  0  0  0  0  0  0  0
   -1.3914   -3.7224   -0.0000 C   0  0  0  0  0  0  0  0  0  0  0  0
   -0.1070   -4.4716   -0.0000 C   0  0  0  0  0  0  0  0  0  0  0  0
    3.8294   -2.2596   -0.0000 C   0  0  0  0  0  0  0  0  0  0  0  0
    2.5569    0.0119   -0.0000 C   0  0  0  0  0  0  0  0  0  0  0  0
   -2.6996   -4.4597   -0.0000 C   0  0  0  0  0  0  0  0  0  0  0  0
   -0.1308   -2.9494   -0.0000 O   0  0  0  0  0  0  0  0  0  0  0  0
   -0.1308   -5.9582   -0.0000 C   0  0  0  0  0  0  0  0  0  0  0  0
   -2.7234   -5.9463   -0.0000 C   0  0  0  0  0  0  0  0  0  0  0  0
   -4.0078   -3.6867   -0.0000 C   0  0  0  0  0  0  0  0  0  0  0  0
   -2.7234   -2.9494   -0.0000 C   0  0  0  0  0  0  0  0  0  0  0  0
   -1.4390   -6.6955   -0.0000 C   0  0  0  0  0  0  0  0  0  0  0  0
   -4.0316   -6.6836   -0.0000 C   0  0  0  0  0  0  0  0  0  0  0  0
   -5.3160   -4.4359   -0.0000 C   0  0  0  0  0  0  0  0  0  0  0  0
   -5.3398   -5.9225   -0.0000 C   0  0  0  0  0  0  0  0  0  0  0  0
   -4.8165   -7.9680   -0.0000 C   0  0  0  0  0  0  0  0  0  0  0  0
   -3.3061   -7.9680   -0.0000 C   0  0  0  0  0  0  0  0  0  0  0  0
  1  2  2  0  0  0  0
  2  3  1  0  0  0  0
  2  4  1  0  0  0  0
  3  5  2  0  0  0  0
  3  6  1  0  0  0  0
  4  7  2  0  0  0  0
  5  8  1  0  0  0  0
  6  9  1  0  0  0  0
  6 10  1  0  0  0  0
  7 11  1  0  0  0  0
  8 12  1  6  0  0  0
  8 13  1  0  0  0  0
 11 14  1  0  0  0  0
 11 15  1  0  0  0  0
 11 16  1  6  0  0  0
 13 17  1  0  0  0  0
 14 18  1  0  0  0  0
 15 19  1  0  0  0  0
 18 20  1  0  0  0  0
 18 21  1  0  0  0  0
 18 22  1  0  0  0  0
  7  8  1  0  0  0  0
 14 17  1  6  0  0  0
 19 20  1  0  0  0  0
M  END
>  <MolRegNo>
387460

>  <m>


>  <Value>
0

>  <Unit>


>  <Type>
Activity

>  <Ligand Efficiency>


>  <Binding Efficiency>


>  <Surface Efficiency>


>  <Assay Index>
294025

>  <Assay Category>


>  <Assay Organism>
SARS coronavirus

>  <Target ID>
100499

>  <Target Name>
SARS coronavirus

>  <Target Organism>
SARS coronavirus

>  <Target Description>
Target is a complete organism

>  <Sequence Accession>


>  <Reference>
J. Med. Chem. 50 (17), 4087-4095 (2007)

>  <Pubmed ID>
17663539

>  <DOI>
10.1021/jm070295s

>  <InChI-Key>
DWDOXTINEVOYSV-DBVUQKKJSA-N

>  <Molecular Formula>
C20H30O2

>  <Monoisotopic Mass>
302.224580

>  <Druglikeness>
-2.3173

$$$$
Compound 117
Actelion Java MolfileCreator 1.0

 22 24  0  0  0  0  0  0  0  0999 V2000
    0.0000   -0.0000   -0.0000 O   0  0  0  0  0  0  0  0  0  0  0  0
   -0.0357   -1.4866   -0.0000 C   0  0  0  0  0  0  0  0  0  0  0  0
    1.2487   -2.2477   -0.0000 C   0  0  0  0  0  0  0  0  0  0  0  0
   -1.3676   -2.2239   -0.0000 C   0  0  0  0  0  0  0  0  0  0  0  0
    1.2130   -3.7462   -0.0000 C   0  0  0  0  0  0  0  0  0  0  0  0
    2.5450   -1.4985   -0.0000 C   0  0  0  0  0  0  0  0  0  0  0  0
   -1.3914   -3.7224   -0.0000 C   0  0  0  0  0  0  0  0  0  0  0  0
   -0.1070   -4.4716   -0.0000 C   0  0  0  0  0  0  0  0  0  0  0  0
    3.8294   -2.2596   -0.0000 C   0  0  0  0  0  0  0  0  0  0  0  0
    2.5569    0.0119   -0.0000 C   0  0  0  0  0  0  0  0  0  0  0  0
   -2.6996   -4.4597   -0.0000 C   0  0  0  0  0  0  0  0  0  0  0  0
   -0.1308   -2.9494   -0.0000 O   0  0  0  0  0  0  0  0  0  0  0  0
   -0.1308   -5.9582   -0.0000 C   0  0  0  0  0  0  0  0  0  0  0  0
   -2.7234   -5.9463   -0.0000 C   0  0  0  0  0  0  0  0  0  0  0  0
   -4.0078   -3.6867   -0.0000 C   0  0  0  0  0  0  0  0  0  0  0  0
   -2.7234   -2.9494   -0.0000 C   0  0  0  0  0  0  0  0  0  0  0  0
   -1.4390   -6.6955   -0.0000 C   0  0  0  0  0  0  0  0  0  0  0  0
   -4.0316   -6.6836   -0.0000 C   0  0  0  0  0  0  0  0  0  0  0  0
   -5.3160   -4.4359   -0.0000 C   0  0  0  0  0  0  0  0  0  0  0  0
   -5.3398   -5.9225   -0.0000 C   0  0  0  0  0  0  0  0  0  0  0  0
   -4.8165   -7.9680   -0.0000 C   0  0  0  0  0  0  0  0  0  0  0  0
   -3.3061   -7.9680   -0.0000 C   0  0  0  0  0  0  0  0  0  0  0  0
  1  2  2  0  0  0  0
  2  3  1  0  0  0  0
  2  4  1  0  0  0  0
  3  5  2  0  0  0  0
  3  6  1  0  0  0  0
  4  7  2  0  0  0  0
  5  8  1  0  0  0  0
  6  9  1  0  0  0  0
  6 10  1  0  0  0  0
  7 11  1  0  0  0  0
  8 12  1  6  0  0  0
  8 13  1  0  0  0  0
 11 14  1  0  0  0  0
 11 15  1  0  0  0  0
 11 16  1  6  0  0  0
 13 17  1  0  0  0  0
 14 18  1  0  0  0  0
 15 19  1  0  0  0  0
 18 20  1  0  0  0  0
 18 21  1  0  0  0  0
 18 22  1  0  0  0  0
  7  8  1  0  0  0  0
 14 17  1  6  0  0  0
 19 20  1  0  0  0  0
M  END
>  <MolRegNo>
387460

>  <m>
=

>  <Value>
1470

>  <Unit>
nM

>  <Type>
EC50

>  <Ligand Efficiency>


>  <Binding Efficiency>


>  <Surface Efficiency>


>  <Assay Index>
294026

>  <Assay Category>


>  <Assay Organism>
SARS coronavirus

>  <Target ID>
100499

>  <Target Name>
SARS coronavirus

>  <Target Organism>
SARS coronavirus

>  <Target Description>
Target is a complete organism

>  <Sequence Accession>


>  <Reference>
J. Med. Chem. 50 (17), 4087-4095 (2007)

>  <Pubmed ID>
17663539

>  <DOI>
10.1021/jm070295s

>  <InChI-Key>
DWDOXTINEVOYSV-DBVUQKKJSA-N

>  <Molecular Formula>
C20H30O2

>  <Monoisotopic Mass>
302.224580

>  <Druglikeness>
-2.3173

$$$$
Compound 118
Actelion Java MolfileCreator 1.0

 22 24  0  0  0  0  0  0  0  0999 V2000
    0.0000   -0.0000   -0.0000 O   0  0  0  0  0  0  0  0  0  0  0  0
   -0.0357   -1.4866   -0.0000 C   0  0  0  0  0  0  0  0  0  0  0  0
    1.2487   -2.2477   -0.0000 C   0  0  0  0  0  0  0  0  0  0  0  0
   -1.3676   -2.2239   -0.0000 C   0  0  0  0  0  0  0  0  0  0  0  0
    1.2130   -3.7462   -0.0000 C   0  0  0  0  0  0  0  0  0  0  0  0
    2.5450   -1.4985   -0.0000 C   0  0  0  0  0  0  0  0  0  0  0  0
   -1.3914   -3.7224   -0.0000 C   0  0  0  0  0  0  0  0  0  0  0  0
   -0.1070   -4.4716   -0.0000 C   0  0  0  0  0  0  0  0  0  0  0  0
    3.8294   -2.2596   -0.0000 C   0  0  0  0  0  0  0  0  0  0  0  0
    2.5569    0.0119   -0.0000 C   0  0  0  0  0  0  0  0  0  0  0  0
   -2.6996   -4.4597   -0.0000 C   0  0  0  0  0  0  0  0  0  0  0  0
   -0.1308   -2.9494   -0.0000 O   0  0  0  0  0  0  0  0  0  0  0  0
   -0.1308   -5.9582   -0.0000 C   0  0  0  0  0  0  0  0  0  0  0  0
   -2.7234   -5.9463   -0.0000 C   0  0  0  0  0  0  0  0  0  0  0  0
   -4.0078   -3.6867   -0.0000 C   0  0  0  0  0  0  0  0  0  0  0  0
   -2.7234   -2.9494   -0.0000 C   0  0  0  0  0  0  0  0  0  0  0  0
   -1.4390   -6.6955   -0.0000 C   0  0  0  0  0  0  0  0  0  0  0  0
   -4.0316   -6.6836   -0.0000 C   0  0  0  0  0  0  0  0  0  0  0  0
   -5.3160   -4.4359   -0.0000 C   0  0  0  0  0  0  0  0  0  0  0  0
   -5.3398   -5.9225   -0.0000 C   0  0  0  0  0  0  0  0  0  0  0  0
   -4.8165   -7.9680   -0.0000 C   0  0  0  0  0  0  0  0  0  0  0  0
   -3.3061   -7.9680   -0.0000 C   0  0  0  0  0  0  0  0  0  0  0  0
  1  2  2  0  0  0  0
  2  3  1  0  0  0  0
  2  4  1  0  0  0  0
  3  5  2  0  0  0  0
  3  6  1  0  0  0  0
  4  7  2  0  0  0  0
  5  8  1  0  0  0  0
  6  9  1  0  0  0  0
  6 10  1  0  0  0  0
  7 11  1  0  0  0  0
  8 12  1  6  0  0  0
  8 13  1  0  0  0  0
 11 14  1  0  0  0  0
 11 15  1  0  0  0  0
 11 16  1  6  0  0  0
 13 17  1  0  0  0  0
 14 18  1  0  0  0  0
 15 19  1  0  0  0  0
 18 20  1  0  0  0  0
 18 21  1  0  0  0  0
 18 22  1  0  0  0  0
  7  8  1  0  0  0  0
 14 17  1  6  0  0  0
 19 20  1  0  0  0  0
M  END
>  <MolRegNo>
387460

>  <m>
=

>  <Value>
50

>  <Unit>
%

>  <Type>
Inhibition

>  <Ligand Efficiency>


>  <Binding Efficiency>


>  <Surface Efficiency>


>  <Assay Index>
294024

>  <Assay Category>


>  <Assay Organism>
SARS coronavirus

>  <Target ID>
100499

>  <Target Name>
SARS coronavirus

>  <Target Organism>
SARS coronavirus

>  <Target Description>
Target is a complete organism

>  <Sequence Accession>


>  <Reference>
J. Med. Chem. 50 (17), 4087-4095 (2007)

>  <Pubmed ID>
17663539

>  <DOI>
10.1021/jm070295s

>  <InChI-Key>
DWDOXTINEVOYSV-DBVUQKKJSA-N

>  <Molecular Formula>
C20H30O2

>  <Monoisotopic Mass>
302.224580

>  <Druglikeness>
-2.3173

$$$$
Compound 119
Actelion Java MolfileCreator 1.0

 22 24  0  0  0  0  0  0  0  0999 V2000
    0.0000   -0.0000   -0.0000 O   0  0  0  0  0  0  0  0  0  0  0  0
   -0.0357   -1.4866   -0.0000 C   0  0  0  0  0  0  0  0  0  0  0  0
    1.2487   -2.2477   -0.0000 C   0  0  0  0  0  0  0  0  0  0  0  0
   -1.3676   -2.2239   -0.0000 C   0  0  0  0  0  0  0  0  0  0  0  0
    1.2130   -3.7462   -0.0000 C   0  0  0  0  0  0  0  0  0  0  0  0
    2.5450   -1.4985   -0.0000 C   0  0  0  0  0  0  0  0  0  0  0  0
   -1.3914   -3.7224   -0.0000 C   0  0  0  0  0  0  0  0  0  0  0  0
   -0.1070   -4.4716   -0.0000 C   0  0  0  0  0  0  0  0  0  0  0  0
    3.8294   -2.2596   -0.0000 C   0  0  0  0  0  0  0  0  0  0  0  0
    2.5569    0.0119   -0.0000 C   0  0  0  0  0  0  0  0  0  0  0  0
   -2.6996   -4.4597   -0.0000 C   0  0  0  0  0  0  0  0  0  0  0  0
   -0.1308   -2.9494   -0.0000 O   0  0  0  0  0  0  0  0  0  0  0  0
   -0.1308   -5.9582   -0.0000 C   0  0  0  0  0  0  0  0  0  0  0  0
   -2.7234   -5.9463   -0.0000 C   0  0  0  0  0  0  0  0  0  0  0  0
   -4.0078   -3.6867   -0.0000 C   0  0  0  0  0  0  0  0  0  0  0  0
   -2.7234   -2.9494   -0.0000 C   0  0  0  0  0  0  0  0  0  0  0  0
   -1.4390   -6.6955   -0.0000 C   0  0  0  0  0  0  0  0  0  0  0  0
   -4.0316   -6.6836   -0.0000 C   0  0  0  0  0  0  0  0  0  0  0  0
   -5.3160   -4.4359   -0.0000 C   0  0  0  0  0  0  0  0  0  0  0  0
   -5.3398   -5.9225   -0.0000 C   0  0  0  0  0  0  0  0  0  0  0  0
   -4.8165   -7.9680   -0.0000 C   0  0  0  0  0  0  0  0  0  0  0  0
   -3.3061   -7.9680   -0.0000 C   0  0  0  0  0  0  0  0  0  0  0  0
  1  2  2  0  0  0  0
  2  3  1  0  0  0  0
  2  4  1  0  0  0  0
  3  5  2  0  0  0  0
  3  6  1  0  0  0  0
  4  7  2  0  0  0  0
  5  8  1  0  0  0  0
  6  9  1  0  0  0  0
  6 10  1  0  0  0  0
  7 11  1  0  0  0  0
  8 12  1  6  0  0  0
  8 13  1  0  0  0  0
 11 14  1  0  0  0  0
 11 15  1  0  0  0  0
 11 16  1  6  0  0  0
 13 17  1  0  0  0  0
 14 18  1  0  0  0  0
 15 19  1  0  0  0  0
 18 20  1  0  0  0  0
 18 21  1  0  0  0  0
 18 22  1  0  0  0  0
  7  8  1  0  0  0  0
 14 17  1  6  0  0  0
 19 20  1  0  0  0  0
M  END
>  <MolRegNo>
387460

>  <m>
<

>  <Value>
25

>  <Unit>
%

>  <Type>
Inhibition

>  <Ligand Efficiency>


>  <Binding Efficiency>


>  <Surface Efficiency>


>  <Assay Index>
294022

>  <Assay Category>


>  <Assay Organism>
SARS coronavirus

>  <Target ID>
100499

>  <Target Name>
SARS coronavirus

>  <Target Organism>
SARS coronavirus

>  <Target Description>
Target is a complete organism

>  <Sequence Accession>


>  <Reference>
J. Med. Chem. 50 (17), 4087-4095 (2007)

>  <Pubmed ID>
17663539

>  <DOI>
10.1021/jm070295s

>  <InChI-Key>
DWDOXTINEVOYSV-DBVUQKKJSA-N

>  <Molecular Formula>
C20H30O2

>  <Monoisotopic Mass>
302.224580

>  <Druglikeness>
-2.3173

$$$$
Compound 120
Actelion Java MolfileCreator 1.0

 22 24  0  0  0  0  0  0  0  0999 V2000
    0.0000   -0.0000   -0.0000 O   0  0  0  0  0  0  0  0  0  0  0  0
   -0.0357   -1.4866   -0.0000 C   0  0  0  0  0  0  0  0  0  0  0  0
    1.2487   -2.2477   -0.0000 C   0  0  0  0  0  0  0  0  0  0  0  0
   -1.3676   -2.2239   -0.0000 C   0  0  0  0  0  0  0  0  0  0  0  0
    1.2130   -3.7462   -0.0000 C   0  0  0  0  0  0  0  0  0  0  0  0
    2.5450   -1.4985   -0.0000 C   0  0  0  0  0  0  0  0  0  0  0  0
   -1.3914   -3.7224   -0.0000 C   0  0  0  0  0  0  0  0  0  0  0  0
   -0.1070   -4.4716   -0.0000 C   0  0  0  0  0  0  0  0  0  0  0  0
    3.8294   -2.2596   -0.0000 C   0  0  0  0  0  0  0  0  0  0  0  0
    2.5569    0.0119   -0.0000 C   0  0  0  0  0  0  0  0  0  0  0  0
   -2.6996   -4.4597   -0.0000 C   0  0  0  0  0  0  0  0  0  0  0  0
   -0.1308   -2.9494   -0.0000 O   0  0  0  0  0  0  0  0  0  0  0  0
   -0.1308   -5.9582   -0.0000 C   0  0  0  0  0  0  0  0  0  0  0  0
   -2.7234   -5.9463   -0.0000 C   0  0  0  0  0  0  0  0  0  0  0  0
   -4.0078   -3.6867   -0.0000 C   0  0  0  0  0  0  0  0  0  0  0  0
   -2.7234   -2.9494   -0.0000 C   0  0  0  0  0  0  0  0  0  0  0  0
   -1.4390   -6.6955   -0.0000 C   0  0  0  0  0  0  0  0  0  0  0  0
   -4.0316   -6.6836   -0.0000 C   0  0  0  0  0  0  0  0  0  0  0  0
   -5.3160   -4.4359   -0.0000 C   0  0  0  0  0  0  0  0  0  0  0  0
   -5.3398   -5.9225   -0.0000 C   0  0  0  0  0  0  0  0  0  0  0  0
   -4.8165   -7.9680   -0.0000 C   0  0  0  0  0  0  0  0  0  0  0  0
   -3.3061   -7.9680   -0.0000 C   0  0  0  0  0  0  0  0  0  0  0  0
  1  2  2  0  0  0  0
  2  3  1  0  0  0  0
  2  4  1  0  0  0  0
  3  5  2  0  0  0  0
  3  6  1  0  0  0  0
  4  7  2  0  0  0  0
  5  8  1  0  0  0  0
  6  9  1  0  0  0  0
  6 10  1  0  0  0  0
  7 11  1  0  0  0  0
  8 12  1  6  0  0  0
  8 13  1  0  0  0  0
 11 14  1  0  0  0  0
 11 15  1  0  0  0  0
 11 16  1  6  0  0  0
 13 17  1  0  0  0  0
 14 18  1  0  0  0  0
 15 19  1  0  0  0  0
 18 20  1  0  0  0  0
 18 21  1  0  0  0  0
 18 22  1  0  0  0  0
  7  8  1  0  0  0  0
 14 17  1  6  0  0  0
 19 20  1  0  0  0  0
M  END
>  <MolRegNo>
387460

>  <m>
<

>  <Value>
25

>  <Unit>
%

>  <Type>
Inhibition

>  <Ligand Efficiency>


>  <Binding Efficiency>


>  <Surface Efficiency>


>  <Assay Index>
294023

>  <Assay Category>


>  <Assay Organism>
SARS coronavirus

>  <Target ID>
100499

>  <Target Name>
SARS coronavirus

>  <Target Organism>
SARS coronavirus

>  <Target Description>
Target is a complete organism

>  <Sequence Accession>


>  <Reference>
J. Med. Chem. 50 (17), 4087-4095 (2007)

>  <Pubmed ID>
17663539

>  <DOI>
10.1021/jm070295s

>  <InChI-Key>
DWDOXTINEVOYSV-DBVUQKKJSA-N

>  <Molecular Formula>
C20H30O2

>  <Monoisotopic Mass>
302.224580

>  <Druglikeness>
-2.3173

$$$$
Compound 121
Actelion Java MolfileCreator 1.0

 15 16  0  0  0  0  0  0  0  0999 V2000
    0.0000   -0.0000   -0.0000 Cl  0  0  0  0  0  0  0  0  0  0  0  0
   -0.0945   -1.4876   -0.0000 C   0  0  0  0  0  0  0  0  0  0  0  0
    1.1570   -2.3023   -0.0000 C   0  0  0  0  0  0  0  0  0  0  0  0
   -1.4404   -2.1606   -0.0000 C   0  0  0  0  0  0  0  0  0  0  0  0
    1.0626   -3.7899   -0.0000 N   0  0  0  0  0  0  0  0  0  0  0  0
   -1.5349   -3.6364   -0.0000 C   0  0  0  0  0  0  0  0  0  0  0  0
   -0.2834   -4.4511   -0.0000 C   0  0  0  0  0  0  0  0  0  0  0  0
   -2.8808   -4.2976   -0.0000 O   0  0  0  0  0  0  0  0  0  0  0  0
   -4.1677   -3.5066   -0.0000 C   0  0  0  0  0  0  0  0  0  0  0  0
   -4.1441   -1.9953   -0.0000 O   0  0  0  0  0  0  0  0  0  0  0  0
   -5.5019   -4.2150   -0.0000 C   0  0  0  0  0  0  0  0  0  0  0  0
   -6.8715   -3.5538   -0.0000 O   0  0  0  0  0  0  0  0  0  0  0  0
   -5.7144   -5.6908   -0.0000 C   0  0  0  0  0  0  0  0  0  0  0  0
   -7.9104   -4.6282   -0.0000 C   0  0  0  0  0  0  0  0  0  0  0  0
   -7.2020   -5.9505   -0.0000 C   0  0  0  0  0  0  0  0  0  0  0  0
  1  2  1  0  0  0  0
  2  3  2  0  0  0  0
  2  4  1  0  0  0  0
  3  5  1  0  0  0  0
  4  6  2  0  0  0  0
  5  7  2  0  0  0  0
  6  8  1  0  0  0  0
  8  9  1  0  0  0  0
  9 10  2  0  0  0  0
  9 11  1  0  0  0  0
 11 12  1  0  0  0  0
 11 13  2  0  0  0  0
 12 14  1  0  0  0  0
 13 15  1  0  0  0  0
  6  7  1  0  0  0  0
 14 15  2  0  0  0  0
M  END
>  <MolRegNo>
371859

>  <m>
=

>  <Value>
60

>  <Unit>
nM

>  <Type>
IC50

>  <Ligand Efficiency>
0.66

>  <Binding Efficiency>
32.30

>  <Surface Efficiency>
13.80

>  <Assay Index>
278391

>  <Assay Category>


>  <Assay Organism>
SARS coronavirus

>  <Target ID>
20012

>  <Target Name>
SARS coronavirus 3C-like proteinase

>  <Target Organism>
SARS coronavirus

>  <Target Description>
Target is a single protein chain

>  <Sequence Accession>
P0C6U8

>  <Reference>
J. Med. Chem. 50 (8), 1850-1864 (2007)

>  <Pubmed ID>
17381079

>  <DOI>
10.1021/jm061425k

>  <InChI-Key>
DWJOEJDGHVXXEB-UHFFFAOYSA-N

>  <Molecular Formula>
C10H6NO3Cl

>  <Monoisotopic Mass>
223.003621

>  <Druglikeness>
-0.41217

$$$$
Compound 122
Actelion Java MolfileCreator 1.0

 15 16  0  0  0  0  0  0  0  0999 V2000
    0.0000   -0.0000   -0.0000 Cl  0  0  0  0  0  0  0  0  0  0  0  0
   -0.0945   -1.4876   -0.0000 C   0  0  0  0  0  0  0  0  0  0  0  0
    1.1570   -2.3023   -0.0000 C   0  0  0  0  0  0  0  0  0  0  0  0
   -1.4404   -2.1606   -0.0000 C   0  0  0  0  0  0  0  0  0  0  0  0
    1.0626   -3.7899   -0.0000 N   0  0  0  0  0  0  0  0  0  0  0  0
   -1.5349   -3.6364   -0.0000 C   0  0  0  0  0  0  0  0  0  0  0  0
   -0.2834   -4.4511   -0.0000 C   0  0  0  0  0  0  0  0  0  0  0  0
   -2.8808   -4.2976   -0.0000 O   0  0  0  0  0  0  0  0  0  0  0  0
   -4.1677   -3.5066   -0.0000 C   0  0  0  0  0  0  0  0  0  0  0  0
   -4.1441   -1.9953   -0.0000 O   0  0  0  0  0  0  0  0  0  0  0  0
   -5.5019   -4.2150   -0.0000 C   0  0  0  0  0  0  0  0  0  0  0  0
   -6.8715   -3.5538   -0.0000 O   0  0  0  0  0  0  0  0  0  0  0  0
   -5.7144   -5.6908   -0.0000 C   0  0  0  0  0  0  0  0  0  0  0  0
   -7.9104   -4.6282   -0.0000 C   0  0  0  0  0  0  0  0  0  0  0  0
   -7.2020   -5.9505   -0.0000 C   0  0  0  0  0  0  0  0  0  0  0  0
  1  2  1  0  0  0  0
  2  3  2  0  0  0  0
  2  4  1  0  0  0  0
  3  5  1  0  0  0  0
  4  6  2  0  0  0  0
  5  7  2  0  0  0  0
  6  8  1  0  0  0  0
  8  9  1  0  0  0  0
  9 10  2  0  0  0  0
  9 11  1  0  0  0  0
 11 12  1  0  0  0  0
 11 13  2  0  0  0  0
 12 14  1  0  0  0  0
 13 15  1  0  0  0  0
  6  7  1  0  0  0  0
 14 15  2  0  0  0  0
M  END
>  <MolRegNo>
371859

>  <m>
=

>  <Value>
99

>  <Unit>
%

>  <Type>
Inhibition

>  <Ligand Efficiency>


>  <Binding Efficiency>


>  <Surface Efficiency>


>  <Assay Index>
278390

>  <Assay Category>


>  <Assay Organism>
SARS coronavirus

>  <Target ID>
20012

>  <Target Name>
SARS coronavirus 3C-like proteinase

>  <Target Organism>
SARS coronavirus

>  <Target Description>
Target is a single protein chain

>  <Sequence Accession>
P0C6U8

>  <Reference>
J. Med. Chem. 50 (8), 1850-1864 (2007)

>  <Pubmed ID>
17381079

>  <DOI>
10.1021/jm061425k

>  <InChI-Key>
DWJOEJDGHVXXEB-UHFFFAOYSA-N

>  <Molecular Formula>
C10H6NO3Cl

>  <Monoisotopic Mass>
223.003621

>  <Druglikeness>
-0.41217

$$$$
Compound 123
Actelion Java MolfileCreator 1.0

 34 37  0  0  0  0  0  0  0  0999 V2000
    0.0000   -0.0000   -0.0000 F   0  0  0  0  0  0  0  0  0  0  0  0
   -0.2844    1.2367   -0.0000 C   0  0  0  0  0  0  0  0  0  0  0  0
    0.6307    2.1024   -0.0000 F   0  0  0  0  0  0  0  0  0  0  0  0
    0.9028    0.8781   -0.0000 F   0  0  0  0  0  0  0  0  0  0  0  0
   -1.7933    1.7190   -0.0000 C   0  0  0  0  0  0  0  0  0  0  0  0
   -3.0671    0.8039   -0.0000 N   0  0  0  0  0  0  0  0  0  0  0  0
   -2.3127    3.2031   -0.0000 C   0  0  0  0  0  0  0  0  0  0  0  0
   -4.3533    1.7314   -0.0000 N   0  0  0  0  0  0  0  0  0  0  0  0
   -3.8833    3.2279   -0.0000 C   0  0  0  0  0  0  0  0  0  0  0  0
   -1.4099    4.4893   -0.0000 C   0  0  0  0  0  0  0  0  0  0  0  0
   -5.8621    1.2491   -0.0000 C   0  0  0  0  0  0  0  0  0  0  0  0
   -4.6377    4.2543   -0.0000 O   0  0  0  0  0  0  0  0  0  0  0  0
    0.1360    4.3409   -0.0000 C   0  0  0  0  0  0  0  0  0  0  0  0
   -6.0723   -0.2968   -0.0000 C   0  0  0  0  0  0  0  0  0  0  0  0
   -7.1112    2.2137   -0.0000 C   0  0  0  0  0  0  0  0  0  0  0  0
    1.1749    5.5158   -0.0000 O   0  0  0  0  0  0  0  0  0  0  0  0
    0.9152    2.9929   -0.0000 C   0  0  0  0  0  0  0  0  0  0  0  0
   -7.5317   -0.8904   -0.0000 C   0  0  0  0  0  0  0  0  0  0  0  0
   -8.5705    1.6201   -0.0000 C   0  0  0  0  0  0  0  0  0  0  0  0
    2.5724    4.8851   -0.0000 C   0  0  0  0  0  0  0  0  0  0  0  0
    2.4364    3.3392   -0.0000 C   0  0  0  0  0  0  0  0  0  0  0  0
   -7.7419   -2.4364   -0.0000 C   0  0  0  0  0  0  0  0  0  0  0  0
   -8.7931    0.0742   -0.0000 C   0  0  0  0  0  0  0  0  0  0  0  0
    3.9204    5.6766   -0.0000 C   0  0  0  0  0  0  0  0  0  0  0  0
   -6.7525   -3.1908   -0.0000 O   0  0  0  0  0  0  0  0  0  0  0  0
   -8.9168   -2.9063   -0.0000 O   0  0  0  0  0  0  0  0  0  0  0  0
    5.2685    4.9098   -0.0000 C   0  0  0  0  0  0  0  0  0  0  0  0
    3.9081    7.2596   -0.0000 C   0  0  0  0  0  0  0  0  0  0  0  0
    5.2561    3.3515   -0.0000 C   0  0  0  0  0  0  0  0  0  0  0  0
    6.6165    5.7013   -0.0000 C   0  0  0  0  0  0  0  0  0  0  0  0
    5.2561    8.0511   -0.0000 C   0  0  0  0  0  0  0  0  0  0  0  0
    6.3320    2.7332   -0.0000 O   0  0  0  0  0  0  0  0  0  0  0  0
    4.1554    2.7332   -0.0000 O   0  0  0  0  0  0  0  0  0  0  0  0
    6.6041    7.2843   -0.0000 C   0  0  0  0  0  0  0  0  0  0  0  0
  1  2  1  0  0  0  0
  2  3  1  0  0  0  0
  2  4  1  0  0  0  0
  2  5  1  0  0  0  0
  5  6  2  0  0  0  0
  5  7  1  0  0  0  0
  6  8  1  0  0  0  0
  7  9  1  0  0  0  0
  7 10  2  0  0  0  0
  8 11  1  0  0  0  0
  9 12  2  0  0  0  0
 10 13  1  0  0  0  0
 11 14  2  0  0  0  0
 11 15  1  0  0  0  0
 13 16  1  0  0  0  0
 13 17  2  0  0  0  0
 14 18  1  0  0  0  0
 15 19  2  0  0  0  0
 16 20  1  0  0  0  0
 17 21  1  0  0  0  0
 18 22  1  0  0  0  0
 18 23  2  0  0  0  0
 20 24  1  0  0  0  0
 22 25  2  0  0  0  0
 22 26  1  0  0  0  0
 24 27  2  0  0  0  0
 24 28  1  0  0  0  0
 27 29  1  0  0  0  0
 27 30  1  0  0  0  0
 28 31  2  0  0  0  0
 29 32  2  0  0  0  0
 29 33  1  0  0  0  0
 30 34  2  0  0  0  0
  8  9  1  0  0  0  0
 19 23  1  0  0  0  0
 20 21  2  0  0  0  0
 31 34  1  0  0  0  0
M  END
>  <MolRegNo>
2087687

>  <m>
>

>  <Value>
50000

>  <Unit>
nM

>  <Type>
IC50

>  <Ligand Efficiency>


>  <Binding Efficiency>


>  <Surface Efficiency>


>  <Assay Index>
1017144

>  <Assay Category>


>  <Assay Organism>
SARS coronavirus

>  <Target ID>
101075

>  <Target Name>
Replicase polyprotein 1ab

>  <Target Organism>
SARS coronavirus

>  <Target Description>
Target is a single protein chain

>  <Sequence Accession>
P0C6X7

>  <Reference>
Bioorg. Med. Chem. 24 (13), 3035-3042 (2016)

>  <Pubmed ID>
27240464

>  <DOI>
10.1016/j.bmc.2016.05.013

>  <InChI-Key>
DWSJOSLXKQYZQI-UHFFFAOYSA-N

>  <Molecular Formula>
C23H13N2O6F3

>  <Monoisotopic Mass>
470.072572

>  <Druglikeness>
-6.7197

$$$$
Compound 124
Actelion Java MolfileCreator 1.0

 14 15  0  0  0  0  0  0  0  0999 V2000
    0.0000   -0.0000   -0.0000 O   0  0  0  0  0  0  0  0  0  0  0  0
   -0.0119   -1.4931   -0.0000 C   0  0  0  0  0  0  0  0  0  0  0  0
   -1.3272   -2.2278   -0.0000 O   0  0  0  0  0  0  0  0  0  0  0  0
    1.2798   -2.2278   -0.0000 C   0  0  0  0  0  0  0  0  0  0  0  0
   -2.6426   -1.4694   -0.0000 C   0  0  0  0  0  0  0  0  0  0  0  0
    1.2680   -3.7210   -0.0000 C   0  0  0  0  0  0  0  0  0  0  0  0
    2.5597   -1.4694   -0.0000 C   0  0  0  0  0  0  0  0  0  0  0  0
   -4.0172   -2.0738   -0.0000 O   0  0  0  0  0  0  0  0  0  0  0  0
   -2.8085    0.0356   -0.0000 C   0  0  0  0  0  0  0  0  0  0  0  0
    2.5597   -4.4557   -0.0000 N   0  0  0  0  0  0  0  0  0  0  0  0
    3.8513   -2.2041   -0.0000 C   0  0  0  0  0  0  0  0  0  0  0  0
   -5.0364   -0.9480   -0.0000 C   0  0  0  0  0  0  0  0  0  0  0  0
   -4.2898    0.3555   -0.0000 C   0  0  0  0  0  0  0  0  0  0  0  0
    3.8513   -3.6973   -0.0000 C   0  0  0  0  0  0  0  0  0  0  0  0
  1  2  2  0  0  0  0
  2  3  1  0  0  0  0
  2  4  1  0  0  0  0
  3  5  1  0  0  0  0
  4  6  2  0  0  0  0
  4  7  1  0  0  0  0
  5  8  1  0  0  0  0
  5  9  2  0  0  0  0
  6 10  1  0  0  0  0
  7 11  2  0  0  0  0
  8 12  1  0  0  0  0
  9 13  1  0  0  0  0
 10 14  2  0  0  0  0
 11 14  1  0  0  0  0
 12 13  2  0  0  0  0
M  END
>  <MolRegNo>
371880

>  <m>
=

>  <Value>
80

>  <Unit>
%

>  <Type>
Inhibition

>  <Ligand Efficiency>


>  <Binding Efficiency>


>  <Surface Efficiency>


>  <Assay Index>
278390

>  <Assay Category>


>  <Assay Organism>
SARS coronavirus

>  <Target ID>
20012

>  <Target Name>
SARS coronavirus 3C-like proteinase

>  <Target Organism>
SARS coronavirus

>  <Target Description>
Target is a single protein chain

>  <Sequence Accession>
P0C6U8

>  <Reference>
J. Med. Chem. 50 (8), 1850-1864 (2007)

>  <Pubmed ID>
17381079

>  <DOI>
10.1021/jm061425k

>  <InChI-Key>
DZNOWZQGPBGZLF-UHFFFAOYSA-N

>  <Molecular Formula>
C10H7NO3

>  <Monoisotopic Mass>
189.042594

>  <Druglikeness>
-1.0837

$$$$
Compound 125
Actelion Java MolfileCreator 1.0

 34 37  0  0  0  0  0  0  0  0999 V2000
    0.0000   -0.0000   -0.0000 Cl  0  0  0  0  0  0  0  0  0  0  0  0
    0.6051   -1.3526   -0.0000 C   0  0  0  0  0  0  0  0  0  0  0  0
   -0.2729   -2.5509   -0.0000 C   0  0  0  0  0  0  0  0  0  0  0  0
    2.0763   -1.4831   -0.0000 C   0  0  0  0  0  0  0  0  0  0  0  0
   -1.7678   -2.3848   -0.0000 O   0  0  0  0  0  0  0  0  0  0  0  0
    0.3203   -3.9035   -0.0000 C   0  0  0  0  0  0  0  0  0  0  0  0
    2.6814   -2.8357   -0.0000 C   0  0  0  0  0  0  0  0  0  0  0  0
   -2.6577   -3.5831   -0.0000 C   0  0  0  0  0  0  0  0  0  0  0  0
    1.7916   -4.0458   -0.0000 C   0  0  0  0  0  0  0  0  0  0  0  0
   -4.1526   -3.4170   -0.0000 C   0  0  0  0  0  0  0  0  0  0  0  0
   -4.9238   -2.1119   -0.0000 S   0  0  0  0  0  0  0  0  0  0  0  0
   -5.1611   -4.5204   -0.0000 N   0  0  0  0  0  0  0  0  0  0  0  0
   -6.3950   -2.4204   -0.0000 C   0  0  0  0  0  0  0  0  0  0  0  0
   -6.5374   -3.9153   -0.0000 C   0  0  0  0  0  0  0  0  0  0  0  0
   -7.8425   -4.6628   -0.0000 C   0  0  0  0  0  0  0  0  0  0  0  0
   -9.1476   -3.9153   -0.0000 N   0  0  0  0  0  0  0  0  0  0  0  0
   -7.8425   -6.1578   -0.0000 C   0  0  0  0  0  0  0  0  0  0  0  0
  -10.4409   -4.6628   -0.0000 C   0  0  0  0  0  0  0  0  0  0  0  0
   -9.1476   -6.8934   -0.0000 C   0  0  0  0  0  0  0  0  0  0  0  0
  -11.7460   -3.9035   -0.0000 S   0  0  0  0  0  0  0  0  0  0  0  0
  -10.4646   -6.1459   -0.0000 N   0  0  0  0  0  0  0  0  0  0  0  0
  -13.0511   -4.6391   -0.0000 C   0  0  0  0  0  0  0  0  0  0  0  0
  -14.3562   -3.8797   -0.0000 C   0  0  0  0  0  0  0  0  0  0  0  0
  -14.3681   -2.3729   -0.0000 O   0  0  0  0  0  0  0  0  0  0  0  0
  -15.6613   -4.6153   -0.0000 N   0  0  0  0  0  0  0  0  0  0  0  0
  -16.9664   -3.8560   -0.0000 C   0  0  0  0  0  0  0  0  0  0  0  0
  -18.2834   -4.5916   -0.0000 C   0  0  0  0  0  0  0  0  0  0  0  0
  -16.9783   -2.3373   -0.0000 C   0  0  0  0  0  0  0  0  0  0  0  0
  -19.5885   -3.8323   -0.0000 C   0  0  0  0  0  0  0  0  0  0  0  0
  -18.2953   -1.5899   -0.0000 C   0  0  0  0  0  0  0  0  0  0  0  0
  -19.6004   -2.3255   -0.0000 C   0  0  0  0  0  0  0  0  0  0  0  0
  -20.9055   -1.5661   -0.0000 C   0  0  0  0  0  0  0  0  0  0  0  0
  -20.9174   -0.0593   -0.0000 C   0  0  0  0  0  0  0  0  0  0  0  0
  -22.2106   -2.3017   -0.0000 C   0  0  0  0  0  0  0  0  0  0  0  0
  1  2  1  0  0  0  0
  2  3  2  0  0  0  0
  2  4  1  0  0  0  0
  3  5  1  0  0  0  0
  3  6  1  0  0  0  0
  4  7  2  0  0  0  0
  5  8  1  0  0  0  0
  6  9  2  0  0  0  0
  8 10  1  0  0  0  0
 10 11  1  0  0  0  0
 10 12  2  0  0  0  0
 11 13  1  0  0  0  0
 12 14  1  0  0  0  0
 14 15  1  0  0  0  0
 15 16  2  0  0  0  0
 15 17  1  0  0  0  0
 16 18  1  0  0  0  0
 17 19  2  0  0  0  0
 18 20  1  0  0  0  0
 18 21  2  0  0  0  0
 20 22  1  0  0  0  0
 22 23  1  0  0  0  0
 23 24  2  0  0  0  0
 23 25  1  0  0  0  0
 25 26  1  0  0  0  0
 26 27  2  0  0  0  0
 26 28  1  0  0  0  0
 27 29  1  0  0  0  0
 28 30  2  0  0  0  0
 29 31  2  0  0  0  0
 31 32  1  0  0  0  0
 32 33  1  0  0  0  0
 32 34  1  0  0  0  0
  7  9  1  0  0  0  0
 13 14  2  0  0  0  0
 19 21  1  0  0  0  0
 30 31  1  0  0  0  0
M  END
>  <MolRegNo>
348938

>  <m>
=

>  <Value>
4.8978e12

>  <Unit>
nM

>  <Type>
IC50

>  <Ligand Efficiency>


>  <Binding Efficiency>


>  <Surface Efficiency>


>  <Assay Index>
262926

>  <Assay Category>


>  <Assay Organism>
SARS coronavirus

>  <Target ID>
20012

>  <Target Name>
SARS coronavirus 3C-like proteinase

>  <Target Organism>
SARS coronavirus

>  <Target Description>
Target is a single protein chain

>  <Sequence Accession>
P0C6U8

>  <Reference>
J. Med. Chem. 49 (12), 3485-3495 (2006)

>  <Pubmed ID>
16759091

>  <DOI>
10.1021/jm050852f

>  <InChI-Key>
FAICNNMEVHYSOP-UHFFFAOYSA-N

>  <Molecular Formula>
C25H23N4O2ClS2

>  <Monoisotopic Mass>
510.095093

>  <Druglikeness>
3.1967

$$$$
Compound 126
Actelion Java MolfileCreator 1.0

 34 37  0  0  0  0  0  0  0  0999 V2000
    0.0000   -0.0000   -0.0000 Cl  0  0  0  0  0  0  0  0  0  0  0  0
    0.6051   -1.3526   -0.0000 C   0  0  0  0  0  0  0  0  0  0  0  0
   -0.2729   -2.5509   -0.0000 C   0  0  0  0  0  0  0  0  0  0  0  0
    2.0763   -1.4831   -0.0000 C   0  0  0  0  0  0  0  0  0  0  0  0
   -1.7678   -2.3848   -0.0000 O   0  0  0  0  0  0  0  0  0  0  0  0
    0.3203   -3.9035   -0.0000 C   0  0  0  0  0  0  0  0  0  0  0  0
    2.6814   -2.8357   -0.0000 C   0  0  0  0  0  0  0  0  0  0  0  0
   -2.6577   -3.5831   -0.0000 C   0  0  0  0  0  0  0  0  0  0  0  0
    1.7916   -4.0458   -0.0000 C   0  0  0  0  0  0  0  0  0  0  0  0
   -4.1526   -3.4170   -0.0000 C   0  0  0  0  0  0  0  0  0  0  0  0
   -4.9238   -2.1119   -0.0000 S   0  0  0  0  0  0  0  0  0  0  0  0
   -5.1611   -4.5204   -0.0000 N   0  0  0  0  0  0  0  0  0  0  0  0
   -6.3950   -2.4204   -0.0000 C   0  0  0  0  0  0  0  0  0  0  0  0
   -6.5374   -3.9153   -0.0000 C   0  0  0  0  0  0  0  0  0  0  0  0
   -7.8425   -4.6628   -0.0000 C   0  0  0  0  0  0  0  0  0  0  0  0
   -9.1476   -3.9153   -0.0000 N   0  0  0  0  0  0  0  0  0  0  0  0
   -7.8425   -6.1578   -0.0000 C   0  0  0  0  0  0  0  0  0  0  0  0
  -10.4409   -4.6628   -0.0000 C   0  0  0  0  0  0  0  0  0  0  0  0
   -9.1476   -6.8934   -0.0000 C   0  0  0  0  0  0  0  0  0  0  0  0
  -11.7460   -3.9035   -0.0000 S   0  0  0  0  0  0  0  0  0  0  0  0
  -10.4646   -6.1459   -0.0000 N   0  0  0  0  0  0  0  0  0  0  0  0
  -13.0511   -4.6391   -0.0000 C   0  0  0  0  0  0  0  0  0  0  0  0
  -14.3562   -3.8797   -0.0000 C   0  0  0  0  0  0  0  0  0  0  0  0
  -14.3681   -2.3729   -0.0000 O   0  0  0  0  0  0  0  0  0  0  0  0
  -15.6613   -4.6153   -0.0000 N   0  0  0  0  0  0  0  0  0  0  0  0
  -16.9664   -3.8560   -0.0000 C   0  0  0  0  0  0  0  0  0  0  0  0
  -18.2834   -4.5916   -0.0000 C   0  0  0  0  0  0  0  0  0  0  0  0
  -16.9783   -2.3373   -0.0000 C   0  0  0  0  0  0  0  0  0  0  0  0
  -19.5885   -3.8323   -0.0000 C   0  0  0  0  0  0  0  0  0  0  0  0
  -18.2953   -1.5899   -0.0000 C   0  0  0  0  0  0  0  0  0  0  0  0
  -19.6004   -2.3255   -0.0000 C   0  0  0  0  0  0  0  0  0  0  0  0
  -20.9055   -1.5661   -0.0000 C   0  0  0  0  0  0  0  0  0  0  0  0
  -20.9174   -0.0593   -0.0000 C   0  0  0  0  0  0  0  0  0  0  0  0
  -22.2106   -2.3017   -0.0000 C   0  0  0  0  0  0  0  0  0  0  0  0
  1  2  1  0  0  0  0
  2  3  2  0  0  0  0
  2  4  1  0  0  0  0
  3  5  1  0  0  0  0
  3  6  1  0  0  0  0
  4  7  2  0  0  0  0
  5  8  1  0  0  0  0
  6  9  2  0  0  0  0
  8 10  1  0  0  0  0
 10 11  1  0  0  0  0
 10 12  2  0  0  0  0
 11 13  1  0  0  0  0
 12 14  1  0  0  0  0
 14 15  1  0  0  0  0
 15 16  2  0  0  0  0
 15 17  1  0  0  0  0
 16 18  1  0  0  0  0
 17 19  2  0  0  0  0
 18 20  1  0  0  0  0
 18 21  2  0  0  0  0
 20 22  1  0  0  0  0
 22 23  1  0  0  0  0
 23 24  2  0  0  0  0
 23 25  1  0  0  0  0
 25 26  1  0  0  0  0
 26 27  2  0  0  0  0
 26 28  1  0  0  0  0
 27 29  1  0  0  0  0
 28 30  2  0  0  0  0
 29 31  2  0  0  0  0
 31 32  1  0  0  0  0
 32 33  1  0  0  0  0
 32 34  1  0  0  0  0
  7  9  1  0  0  0  0
 13 14  2  0  0  0  0
 19 21  1  0  0  0  0
 30 31  1  0  0  0  0
M  END
>  <MolRegNo>
348938

>  <m>
=

>  <Value>
2.0e5

>  <Unit>
nM

>  <Type>
IC50

>  <Ligand Efficiency>


>  <Binding Efficiency>


>  <Surface Efficiency>


>  <Assay Index>
262926

>  <Assay Category>


>  <Assay Organism>
SARS coronavirus

>  <Target ID>
20012

>  <Target Name>
SARS coronavirus 3C-like proteinase

>  <Target Organism>
SARS coronavirus

>  <Target Description>
Target is a single protein chain

>  <Sequence Accession>
P0C6U8

>  <Reference>
J. Med. Chem. 49 (12), 3485-3495 (2006)

>  <Pubmed ID>
16759091

>  <DOI>
10.1021/jm050852f

>  <InChI-Key>
FAICNNMEVHYSOP-UHFFFAOYSA-N

>  <Molecular Formula>
C25H23N4O2ClS2

>  <Monoisotopic Mass>
510.095093

>  <Druglikeness>
3.1967

$$$$
Compound 127
Actelion Java MolfileCreator 1.0

 21 23  0  0  0  0  0  0  0  0999 V2000
    0.0000   -0.0000   -0.0000 S   0  0  0  0  0  0  0  0  0  0  0  0
    1.1917   -0.9057   -0.0000 C   0  0  0  0  0  0  0  0  0  0  0  0
   -1.2513   -0.8461   -0.0000 C   0  0  0  0  0  0  0  0  0  0  0  0
    0.6793   -2.3119   -0.0000 N   0  0  0  0  0  0  0  0  0  0  0  0
    2.6933   -0.8938   -0.0000 N   0  0  0  0  0  0  0  0  0  0  0  0
   -0.8342   -2.2762   -0.0000 N   0  0  0  0  0  0  0  0  0  0  0  0
   -2.6814   -0.3337   -0.0000 C   0  0  0  0  0  0  0  0  0  0  0  0
    3.1461    0.5482   -0.0000 C   0  0  0  0  0  0  0  0  0  0  0  0
    3.9088   -1.7518   -0.0000 C   0  0  0  0  0  0  0  0  0  0  0  0
   -2.9674    1.1560   -0.0000 C   0  0  0  0  0  0  0  0  0  0  0  0
    2.2523    1.7757   -0.0000 O   0  0  0  0  0  0  0  0  0  0  0  0
    4.6358    0.5601   -0.0000 C   0  0  0  0  0  0  0  0  0  0  0  0
    5.1005   -0.8580   -0.0000 S   0  0  0  0  0  0  0  0  0  0  0  0
    3.8969   -3.2415   -0.0000 C   0  0  0  0  0  0  0  0  0  0  0  0
    2.5860   -3.9803   -0.0000 C   0  0  0  0  0  0  0  0  0  0  0  0
    5.1840   -3.9803   -0.0000 C   0  0  0  0  0  0  0  0  0  0  0  0
    1.2751   -3.2176   -0.0000 F   0  0  0  0  0  0  0  0  0  0  0  0
    2.5741   -5.4700   -0.0000 C   0  0  0  0  0  0  0  0  0  0  0  0
    6.4710   -3.2176   -0.0000 F   0  0  0  0  0  0  0  0  0  0  0  0
    5.1720   -5.4819   -0.0000 C   0  0  0  0  0  0  0  0  0  0  0  0
    3.8612   -6.2088   -0.0000 C   0  0  0  0  0  0  0  0  0  0  0  0
  1  2  1  0  0  0  0
  1  3  1  0  0  0  0
  2  4  2  0  0  0  0
  2  5  1  0  0  0  0
  3  6  2  0  0  0  0
  3  7  1  0  0  0  0
  5  8  1  0  0  0  0
  5  9  1  0  0  0  0
  7 10  1  0  0  0  0
  8 11  2  0  0  0  0
  8 12  1  0  0  0  0
  9 13  1  0  0  0  0
  9 14  1  0  0  0  0
 14 15  2  0  0  0  0
 14 16  1  0  0  0  0
 15 17  1  0  0  0  0
 15 18  1  0  0  0  0
 16 19  1  0  0  0  0
 16 20  2  0  0  0  0
 18 21  2  0  0  0  0
  4  6  1  0  0  0  0
 12 13  1  0  0  0  0
 20 21  1  0  0  0  0
M  END
>  <MolRegNo>
390139

>  <m>
<=

>  <Value>
50

>  <Unit>
%

>  <Type>
Inhibition

>  <Ligand Efficiency>


>  <Binding Efficiency>


>  <Surface Efficiency>


>  <Assay Index>
406904

>  <Assay Category>


>  <Assay Organism>
SARS coronavirus

>  <Target ID>
101075

>  <Target Name>
Replicase polyprotein 1ab

>  <Target Organism>
SARS coronavirus

>  <Target Description>
Target is a single protein chain

>  <Sequence Accession>
P0C6X7

>  <Reference>
Bioorg. Med. Chem. Lett. 18 (23), 6110-6114 (2008)

>  <Pubmed ID>
18947995

>  <DOI>
10.1016/j.bmcl.2008.10.023

>  <InChI-Key>
FBIDJKGYZQWZPX-UHFFFAOYSA-N

>  <Molecular Formula>
C13H11N3OF2S2

>  <Monoisotopic Mass>
327.031158

>  <Druglikeness>
2.8531

$$$$
Compound 128
Actelion Java MolfileCreator 1.0

 78 78  0  0  0  0  0  0  0  0999 V2000
    0.0000   -0.0000   -0.0000 O   0  0  0  0  0  0  0  0  0  0  0  0
    1.4527   -0.3113   -0.0000 C   0  0  0  0  0  0  0  0  0  0  0  0
    2.4558    0.8071   -0.0000 O   0  0  0  0  0  0  0  0  0  0  0  0
    1.8908   -1.7294   -0.0000 C   0  0  0  0  0  0  0  0  0  0  0  0
    1.9946    2.2483   -0.0000 C   0  0  0  0  0  0  0  0  0  0  0  0
    0.8647   -2.8247   -0.0000 N   0  0  0  0  0  0  0  0  0  0  0  0
    0.4151   -1.3951   -0.0000 C   0  0  0  0  0  0  0  0  0  0  0  0
    2.9977    3.3666   -0.0000 C   0  0  0  0  0  0  0  0  0  0  0  0
    0.5188    2.5826   -0.0000 C   0  0  0  0  0  0  0  0  0  0  0  0
    1.3028   -4.2429   -0.0000 C   0  0  0  0  0  0  0  0  0  0  0  0
   -0.6111   -2.4904   -0.0000 C   0  0  0  0  0  0  0  0  0  0  0  0
   -0.8071   -0.4958   -0.0000 C   0  0  0  0  0  0  0  0  0  0  0  0
    4.4504    3.0553   -0.0000 O   0  0  0  0  0  0  0  0  0  0  0  0
    2.5365    4.8078   -0.0000 N   0  0  0  0  0  0  0  0  0  0  0  0
    0.0576    4.0238   -0.0000 C   0  0  0  0  0  0  0  0  0  0  0  0
   -0.5073    1.4873   -0.0000 C   0  0  0  0  0  0  0  0  0  0  0  0
    2.7556   -4.5542   -0.0000 O   0  0  0  0  0  0  0  0  0  0  0  0
    0.2767   -5.3382   -0.0000 C   0  0  0  0  0  0  0  0  0  0  0  0
    3.5396    5.9262   -0.0000 C   0  0  0  0  0  0  0  0  0  0  0  0
    0.7148   -6.7563   -0.0000 O   0  0  0  0  0  0  0  0  0  0  0  0
   -1.1991   -5.0038   -0.0000 C   0  0  0  0  0  0  0  0  0  0  0  0
    3.0784    7.3674   -0.0000 C   0  0  0  0  0  0  0  0  0  0  0  0
    2.0638    6.2605   -0.0000 C   0  0  0  0  0  0  0  0  0  0  0  0
    2.1676   -7.0676   -0.0000 C   0  0  0  0  0  0  0  0  0  0  0  0
    1.6026    7.7017   -0.0000 O   0  0  0  0  0  0  0  0  0  0  0  0
    4.0815    8.4858   -0.0000 O   0  0  0  0  0  0  0  0  0  0  0  0
    1.0377    5.1652   -0.0000 C   0  0  0  0  0  0  0  0  0  0  0  0
    0.8417    7.1599   -0.0000 C   0  0  0  0  0  0  0  0  0  0  0  0
    3.1706   -5.9492   -0.0000 O   0  0  0  0  0  0  0  0  0  0  0  0
    2.6057   -8.4858   -0.0000 C   0  0  0  0  0  0  0  0  0  0  0  0
    3.6203    9.9269   -0.0000 C   0  0  0  0  0  0  0  0  0  0  0  0
    4.0584   -8.7970   -0.0000 N   0  0  0  0  0  0  0  0  0  0  0  0
    1.5795   -9.5811   -0.0000 C   0  0  0  0  0  0  0  0  0  0  0  0
    4.6234   11.0453   -0.0000 C   0  0  0  0  0  0  0  0  0  0  0  0
    2.1445   10.2613   -0.0000 C   0  0  0  0  0  0  0  0  0  0  0  0
    5.0615   -7.6787   -0.0000 C   0  0  0  0  0  0  0  0  0  0  0  0
    0.1038   -9.2467   -0.0000 C   0  0  0  0  0  0  0  0  0  0  0  0
    2.0177  -10.9992   -0.0000 C   0  0  0  0  0  0  0  0  0  0  0  0
    4.1622   12.4865   -0.0000 O   0  0  0  0  0  0  0  0  0  0  0  0
    6.0761   10.7340   -0.0000 N   0  0  0  0  0  0  0  0  0  0  0  0
    6.5142   -7.9900   -0.0000 O   0  0  0  0  0  0  0  0  0  0  0  0
    4.6003   -6.2375   -0.0000 C   0  0  0  0  0  0  0  0  0  0  0  0
    7.0791   11.8524   -0.0000 C   0  0  0  0  0  0  0  0  0  0  0  0
    5.6034   -5.1191   -0.0000 O   0  0  0  0  0  0  0  0  0  0  0  0
    6.0530   -6.5488   -0.0000 C   0  0  0  0  0  0  0  0  0  0  0  0
    8.5319   11.5411   -0.0000 C   0  0  0  0  0  0  0  0  0  0  0  0
    6.6180   13.2936   -0.0000 C   0  0  0  0  0  0  0  0  0  0  0  0
    5.1422   -3.6779   -0.0000 C   0  0  0  0  0  0  0  0  0  0  0  0
    7.2521   -7.4250   -0.0000 C   0  0  0  0  0  0  0  0  0  0  0  0
    7.0561   -5.4304   -0.0000 C   0  0  0  0  0  0  0  0  0  0  0  0
    9.5349   12.6594   -0.0000 O   0  0  0  0  0  0  0  0  0  0  0  0
    8.9700   10.1229   -0.0000 O   0  0  0  0  0  0  0  0  0  0  0  0
    7.6210   14.4119   -0.0000 C   0  0  0  0  0  0  0  0  0  0  0  0
    5.1422   13.6279   -0.0000 C   0  0  0  0  0  0  0  0  0  0  0  0
    3.6664   -3.3436   -0.0000 O   0  0  0  0  0  0  0  0  0  0  0  0
    6.1453   -2.5596   -0.0000 C   0  0  0  0  0  0  0  0  0  0  0  0
    7.9439    9.0276   -0.0000 C   0  0  0  0  0  0  0  0  0  0  0  0
    5.6841   -1.1184   -0.0000 N   0  0  0  0  0  0  0  0  0  0  0  0
    7.5980   -2.8709   -0.0000 C   0  0  0  0  0  0  0  0  0  0  0  0
    8.3820    7.6095   -0.0000 C   0  0  0  0  0  0  0  0  0  0  0  0
    9.3966    8.7163   -0.0000 C   0  0  0  0  0  0  0  0  0  0  0  0
    6.6871   -0.0000   -0.0000 C   0  0  0  0  0  0  0  0  0  0  0  0
    8.6010   -1.7525   -0.0000 C   0  0  0  0  0  0  0  0  0  0  0  0
    8.0361   -4.2890   -0.0000 C   0  0  0  0  0  0  0  0  0  0  0  0
    9.8347    7.2982   -0.0000 O   0  0  0  0  0  0  0  0  0  0  0  0
    7.3559    6.5142   -0.0000 N   0  0  0  0  0  0  0  0  0  0  0  0
   10.5957    7.8401   -0.0000 C   0  0  0  0  0  0  0  0  0  0  0  0
   10.3997    9.8347   -0.0000 C   0  0  0  0  0  0  0  0  0  0  0  0
    8.1399   -0.3113   -0.0000 O   0  0  0  0  0  0  0  0  0  0  0  0
    6.2260    1.4412   -0.0000 C   0  0  0  0  0  0  0  0  0  0  0  0
    7.7940    5.0961   -0.0000 C   0  0  0  0  0  0  0  0  0  0  0  0
    7.2290    2.5596   -0.0000 O   0  0  0  0  0  0  0  0  0  0  0  0
    4.7502    1.7756   -0.0000 C   0  0  0  0  0  0  0  0  0  0  0  0
    6.7678    4.0008   -0.0000 C   0  0  0  0  0  0  0  0  0  0  0  0
    9.2467    4.7848   -0.0000 C   0  0  0  0  0  0  0  0  0  0  0  0
    5.2921    4.3351   -0.0000 O   0  0  0  0  0  0  0  0  0  0  0  0
    9.6848    3.3666   -0.0000 C   0  0  0  0  0  0  0  0  0  0  0  0
   10.2498    5.9031   -0.0000 C   0  0  0  0  0  0  0  0  0  0  0  0
  1  2  2  0  0  0  0
  2  3  1  0  0  0  0
  2  4  1  0  0  0  0
  3  5  1  0  0  0  0
  4  6  1  0  0  0  0
  4  7  1  1  0  0  0
  5  8  1  0  0  0  0
  5  9  1  1  0  0  0
  6 10  1  0  0  0  0
  7 11  1  0  0  0  0
  7 12  1  0  0  0  0
  8 13  2  0  0  0  0
  8 14  1  0  0  0  0
  9 15  1  0  0  0  0
  9 16  1  0  0  0  0
 10 17  2  0  0  0  0
 10 18  1  0  0  0  0
 14 19  1  0  0  0  0
 18 20  1  0  0  0  0
 18 21  1  6  0  0  0
 19 22  1  0  0  0  0
 19 23  1  6  0  0  0
 20 24  1  0  0  0  0
 22 25  2  0  0  0  0
 22 26  1  0  0  0  0
 23 27  1  0  0  0  0
 23 28  1  0  0  0  0
 24 29  2  0  0  0  0
 24 30  1  0  0  0  0
 26 31  1  0  0  0  0
 30 32  1  0  0  0  0
 30 33  1  1  0  0  0
 31 34  1  0  0  0  0
 31 35  1  6  0  0  0
 32 36  1  0  0  0  0
 33 37  1  0  0  0  0
 33 38  1  0  0  0  0
 34 39  2  0  0  0  0
 34 40  1  0  0  0  0
 36 41  2  0  0  0  0
 36 42  1  0  0  0  0
 40 43  1  0  0  0  0
 42 44  1  0  0  0  0
 42 45  1  6  0  0  0
 43 46  1  0  0  0  0
 43 47  1  6  0  0  0
 44 48  1  0  0  0  0
 45 49  1  0  0  0  0
 45 50  1  0  0  0  0
 46 51  2  0  0  0  0
 46 52  1  0  0  0  0
 47 53  1  0  0  0  0
 47 54  1  0  0  0  0
 48 55  2  0  0  0  0
 48 56  1  0  0  0  0
 52 57  1  0  0  0  0
 56 58  1  0  0  0  0
 56 59  1  6  0  0  0
 57 60  1  0  0  0  0
 57 61  1  6  0  0  0
 58 62  1  0  0  0  0
 59 63  1  0  0  0  0
 59 64  1  0  0  0  0
 60 65  2  0  0  0  0
 60 66  1  0  0  0  0
 61 67  1  0  0  0  0
 61 68  1  0  0  0  0
 62 69  2  0  0  0  0
 62 70  1  0  0  0  0
 66 71  1  0  0  0  0
 70 72  1  0  0  0  0
 70 73  1  1  0  0  0
 71 74  1  0  0  0  0
 71 75  1  1  0  0  0
 74 76  2  0  0  0  0
 75 77  1  0  0  0  0
 75 78  1  0  0  0  0
 72 74  1  0  0  0  0
M  END
>  <MolRegNo>
369669

>  <m>
=

>  <Value>
1630

>  <Unit>
nM

>  <Type>
EC50

>  <Ligand Efficiency>


>  <Binding Efficiency>


>  <Surface Efficiency>


>  <Assay Index>
294026

>  <Assay Category>


>  <Assay Organism>
SARS coronavirus

>  <Target ID>
100499

>  <Target Name>
SARS coronavirus

>  <Target Organism>
SARS coronavirus

>  <Target Description>
Target is a complete organism

>  <Sequence Accession>


>  <Reference>
J. Med. Chem. 50 (17), 4087-4095 (2007)

>  <Pubmed ID>
17663539

>  <DOI>
10.1021/jm070295s

>  <InChI-Key>
FCFNRCROJUBPLU-IDFHLRISSA-N

>  <Molecular Formula>
C54H90N6O18

>  <Monoisotopic Mass>
1110.63116

>  <Druglikeness>
2.2204

$$$$
Compound 129
Actelion Java MolfileCreator 1.0

 78 78  0  0  0  0  0  0  0  0999 V2000
    0.0000   -0.0000   -0.0000 O   0  0  0  0  0  0  0  0  0  0  0  0
    1.4527   -0.3113   -0.0000 C   0  0  0  0  0  0  0  0  0  0  0  0
    2.4558    0.8071   -0.0000 O   0  0  0  0  0  0  0  0  0  0  0  0
    1.8908   -1.7294   -0.0000 C   0  0  0  0  0  0  0  0  0  0  0  0
    1.9946    2.2483   -0.0000 C   0  0  0  0  0  0  0  0  0  0  0  0
    0.8647   -2.8247   -0.0000 N   0  0  0  0  0  0  0  0  0  0  0  0
    0.4151   -1.3951   -0.0000 C   0  0  0  0  0  0  0  0  0  0  0  0
    2.9977    3.3666   -0.0000 C   0  0  0  0  0  0  0  0  0  0  0  0
    0.5188    2.5826   -0.0000 C   0  0  0  0  0  0  0  0  0  0  0  0
    1.3028   -4.2429   -0.0000 C   0  0  0  0  0  0  0  0  0  0  0  0
   -0.6111   -2.4904   -0.0000 C   0  0  0  0  0  0  0  0  0  0  0  0
   -0.8071   -0.4958   -0.0000 C   0  0  0  0  0  0  0  0  0  0  0  0
    4.4504    3.0553   -0.0000 O   0  0  0  0  0  0  0  0  0  0  0  0
    2.5365    4.8078   -0.0000 N   0  0  0  0  0  0  0  0  0  0  0  0
    0.0576    4.0238   -0.0000 C   0  0  0  0  0  0  0  0  0  0  0  0
   -0.5073    1.4873   -0.0000 C   0  0  0  0  0  0  0  0  0  0  0  0
    2.7556   -4.5542   -0.0000 O   0  0  0  0  0  0  0  0  0  0  0  0
    0.2767   -5.3382   -0.0000 C   0  0  0  0  0  0  0  0  0  0  0  0
    3.5396    5.9262   -0.0000 C   0  0  0  0  0  0  0  0  0  0  0  0
    0.7148   -6.7563   -0.0000 O   0  0  0  0  0  0  0  0  0  0  0  0
   -1.1991   -5.0038   -0.0000 C   0  0  0  0  0  0  0  0  0  0  0  0
    3.0784    7.3674   -0.0000 C   0  0  0  0  0  0  0  0  0  0  0  0
    2.0638    6.2605   -0.0000 C   0  0  0  0  0  0  0  0  0  0  0  0
    2.1676   -7.0676   -0.0000 C   0  0  0  0  0  0  0  0  0  0  0  0
    1.6026    7.7017   -0.0000 O   0  0  0  0  0  0  0  0  0  0  0  0
    4.0815    8.4858   -0.0000 O   0  0  0  0  0  0  0  0  0  0  0  0
    1.0377    5.1652   -0.0000 C   0  0  0  0  0  0  0  0  0  0  0  0
    0.8417    7.1599   -0.0000 C   0  0  0  0  0  0  0  0  0  0  0  0
    3.1706   -5.9492   -0.0000 O   0  0  0  0  0  0  0  0  0  0  0  0
    2.6057   -8.4858   -0.0000 C   0  0  0  0  0  0  0  0  0  0  0  0
    3.6203    9.9269   -0.0000 C   0  0  0  0  0  0  0  0  0  0  0  0
    4.0584   -8.7970   -0.0000 N   0  0  0  0  0  0  0  0  0  0  0  0
    1.5795   -9.5811   -0.0000 C   0  0  0  0  0  0  0  0  0  0  0  0
    4.6234   11.0453   -0.0000 C   0  0  0  0  0  0  0  0  0  0  0  0
    2.1445   10.2613   -0.0000 C   0  0  0  0  0  0  0  0  0  0  0  0
    5.0615   -7.6787   -0.0000 C   0  0  0  0  0  0  0  0  0  0  0  0
    0.1038   -9.2467   -0.0000 C   0  0  0  0  0  0  0  0  0  0  0  0
    2.0177  -10.9992   -0.0000 C   0  0  0  0  0  0  0  0  0  0  0  0
    4.1622   12.4865   -0.0000 O   0  0  0  0  0  0  0  0  0  0  0  0
    6.0761   10.7340   -0.0000 N   0  0  0  0  0  0  0  0  0  0  0  0
    6.5142   -7.9900   -0.0000 O   0  0  0  0  0  0  0  0  0  0  0  0
    4.6003   -6.2375   -0.0000 C   0  0  0  0  0  0  0  0  0  0  0  0
    7.0791   11.8524   -0.0000 C   0  0  0  0  0  0  0  0  0  0  0  0
    5.6034   -5.1191   -0.0000 O   0  0  0  0  0  0  0  0  0  0  0  0
    6.0530   -6.5488   -0.0000 C   0  0  0  0  0  0  0  0  0  0  0  0
    8.5319   11.5411   -0.0000 C   0  0  0  0  0  0  0  0  0  0  0  0
    6.6180   13.2936   -0.0000 C   0  0  0  0  0  0  0  0  0  0  0  0
    5.1422   -3.6779   -0.0000 C   0  0  0  0  0  0  0  0  0  0  0  0
    7.2521   -7.4250   -0.0000 C   0  0  0  0  0  0  0  0  0  0  0  0
    7.0561   -5.4304   -0.0000 C   0  0  0  0  0  0  0  0  0  0  0  0
    9.5349   12.6594   -0.0000 O   0  0  0  0  0  0  0  0  0  0  0  0
    8.9700   10.1229   -0.0000 O   0  0  0  0  0  0  0  0  0  0  0  0
    7.6210   14.4119   -0.0000 C   0  0  0  0  0  0  0  0  0  0  0  0
    5.1422   13.6279   -0.0000 C   0  0  0  0  0  0  0  0  0  0  0  0
    3.6664   -3.3436   -0.0000 O   0  0  0  0  0  0  0  0  0  0  0  0
    6.1453   -2.5596   -0.0000 C   0  0  0  0  0  0  0  0  0  0  0  0
    7.9439    9.0276   -0.0000 C   0  0  0  0  0  0  0  0  0  0  0  0
    5.6841   -1.1184   -0.0000 N   0  0  0  0  0  0  0  0  0  0  0  0
    7.5980   -2.8709   -0.0000 C   0  0  0  0  0  0  0  0  0  0  0  0
    8.3820    7.6095   -0.0000 C   0  0  0  0  0  0  0  0  0  0  0  0
    9.3966    8.7163   -0.0000 C   0  0  0  0  0  0  0  0  0  0  0  0
    6.6871   -0.0000   -0.0000 C   0  0  0  0  0  0  0  0  0  0  0  0
    8.6010   -1.7525   -0.0000 C   0  0  0  0  0  0  0  0  0  0  0  0
    8.0361   -4.2890   -0.0000 C   0  0  0  0  0  0  0  0  0  0  0  0
    9.8347    7.2982   -0.0000 O   0  0  0  0  0  0  0  0  0  0  0  0
    7.3559    6.5142   -0.0000 N   0  0  0  0  0  0  0  0  0  0  0  0
   10.5957    7.8401   -0.0000 C   0  0  0  0  0  0  0  0  0  0  0  0
   10.3997    9.8347   -0.0000 C   0  0  0  0  0  0  0  0  0  0  0  0
    8.1399   -0.3113   -0.0000 O   0  0  0  0  0  0  0  0  0  0  0  0
    6.2260    1.4412   -0.0000 C   0  0  0  0  0  0  0  0  0  0  0  0
    7.7940    5.0961   -0.0000 C   0  0  0  0  0  0  0  0  0  0  0  0
    7.2290    2.5596   -0.0000 O   0  0  0  0  0  0  0  0  0  0  0  0
    4.7502    1.7756   -0.0000 C   0  0  0  0  0  0  0  0  0  0  0  0
    6.7678    4.0008   -0.0000 C   0  0  0  0  0  0  0  0  0  0  0  0
    9.2467    4.7848   -0.0000 C   0  0  0  0  0  0  0  0  0  0  0  0
    5.2921    4.3351   -0.0000 O   0  0  0  0  0  0  0  0  0  0  0  0
    9.6848    3.3666   -0.0000 C   0  0  0  0  0  0  0  0  0  0  0  0
   10.2498    5.9031   -0.0000 C   0  0  0  0  0  0  0  0  0  0  0  0
  1  2  2  0  0  0  0
  2  3  1  0  0  0  0
  2  4  1  0  0  0  0
  3  5  1  0  0  0  0
  4  6  1  0  0  0  0
  4  7  1  1  0  0  0
  5  8  1  0  0  0  0
  5  9  1  1  0  0  0
  6 10  1  0  0  0  0
  7 11  1  0  0  0  0
  7 12  1  0  0  0  0
  8 13  2  0  0  0  0
  8 14  1  0  0  0  0
  9 15  1  0  0  0  0
  9 16  1  0  0  0  0
 10 17  2  0  0  0  0
 10 18  1  0  0  0  0
 14 19  1  0  0  0  0
 18 20  1  0  0  0  0
 18 21  1  6  0  0  0
 19 22  1  0  0  0  0
 19 23  1  6  0  0  0
 20 24  1  0  0  0  0
 22 25  2  0  0  0  0
 22 26  1  0  0  0  0
 23 27  1  0  0  0  0
 23 28  1  0  0  0  0
 24 29  2  0  0  0  0
 24 30  1  0  0  0  0
 26 31  1  0  0  0  0
 30 32  1  0  0  0  0
 30 33  1  1  0  0  0
 31 34  1  0  0  0  0
 31 35  1  6  0  0  0
 32 36  1  0  0  0  0
 33 37  1  0  0  0  0
 33 38  1  0  0  0  0
 34 39  2  0  0  0  0
 34 40  1  0  0  0  0
 36 41  2  0  0  0  0
 36 42  1  0  0  0  0
 40 43  1  0  0  0  0
 42 44  1  0  0  0  0
 42 45  1  6  0  0  0
 43 46  1  0  0  0  0
 43 47  1  6  0  0  0
 44 48  1  0  0  0  0
 45 49  1  0  0  0  0
 45 50  1  0  0  0  0
 46 51  2  0  0  0  0
 46 52  1  0  0  0  0
 47 53  1  0  0  0  0
 47 54  1  0  0  0  0
 48 55  2  0  0  0  0
 48 56  1  0  0  0  0
 52 57  1  0  0  0  0
 56 58  1  0  0  0  0
 56 59  1  6  0  0  0
 57 60  1  0  0  0  0
 57 61  1  6  0  0  0
 58 62  1  0  0  0  0
 59 63  1  0  0  0  0
 59 64  1  0  0  0  0
 60 65  2  0  0  0  0
 60 66  1  0  0  0  0
 61 67  1  0  0  0  0
 61 68  1  0  0  0  0
 62 69  2  0  0  0  0
 62 70  1  0  0  0  0
 66 71  1  0  0  0  0
 70 72  1  0  0  0  0
 70 73  1  1  0  0  0
 71 74  1  0  0  0  0
 71 75  1  1  0  0  0
 74 76  2  0  0  0  0
 75 77  1  0  0  0  0
 75 78  1  0  0  0  0
 72 74  1  0  0  0  0
M  END
>  <MolRegNo>
369669

>  <m>
=

>  <Value>
50

>  <Unit>
%

>  <Type>
Inhibition

>  <Ligand Efficiency>


>  <Binding Efficiency>


>  <Surface Efficiency>


>  <Assay Index>
294025

>  <Assay Category>


>  <Assay Organism>
SARS coronavirus

>  <Target ID>
100499

>  <Target Name>
SARS coronavirus

>  <Target Organism>
SARS coronavirus

>  <Target Description>
Target is a complete organism

>  <Sequence Accession>


>  <Reference>
J. Med. Chem. 50 (17), 4087-4095 (2007)

>  <Pubmed ID>
17663539

>  <DOI>
10.1021/jm070295s

>  <InChI-Key>
FCFNRCROJUBPLU-IDFHLRISSA-N

>  <Molecular Formula>
C54H90N6O18

>  <Monoisotopic Mass>
1110.63116

>  <Druglikeness>
2.2204

$$$$
Compound 130
Actelion Java MolfileCreator 1.0

 78 78  0  0  0  0  0  0  0  0999 V2000
    0.0000   -0.0000   -0.0000 O   0  0  0  0  0  0  0  0  0  0  0  0
    1.4527   -0.3113   -0.0000 C   0  0  0  0  0  0  0  0  0  0  0  0
    2.4558    0.8071   -0.0000 O   0  0  0  0  0  0  0  0  0  0  0  0
    1.8908   -1.7294   -0.0000 C   0  0  0  0  0  0  0  0  0  0  0  0
    1.9946    2.2483   -0.0000 C   0  0  0  0  0  0  0  0  0  0  0  0
    0.8647   -2.8247   -0.0000 N   0  0  0  0  0  0  0  0  0  0  0  0
    0.4151   -1.3951   -0.0000 C   0  0  0  0  0  0  0  0  0  0  0  0
    2.9977    3.3666   -0.0000 C   0  0  0  0  0  0  0  0  0  0  0  0
    0.5188    2.5826   -0.0000 C   0  0  0  0  0  0  0  0  0  0  0  0
    1.3028   -4.2429   -0.0000 C   0  0  0  0  0  0  0  0  0  0  0  0
   -0.6111   -2.4904   -0.0000 C   0  0  0  0  0  0  0  0  0  0  0  0
   -0.8071   -0.4958   -0.0000 C   0  0  0  0  0  0  0  0  0  0  0  0
    4.4504    3.0553   -0.0000 O   0  0  0  0  0  0  0  0  0  0  0  0
    2.5365    4.8078   -0.0000 N   0  0  0  0  0  0  0  0  0  0  0  0
    0.0576    4.0238   -0.0000 C   0  0  0  0  0  0  0  0  0  0  0  0
   -0.5073    1.4873   -0.0000 C   0  0  0  0  0  0  0  0  0  0  0  0
    2.7556   -4.5542   -0.0000 O   0  0  0  0  0  0  0  0  0  0  0  0
    0.2767   -5.3382   -0.0000 C   0  0  0  0  0  0  0  0  0  0  0  0
    3.5396    5.9262   -0.0000 C   0  0  0  0  0  0  0  0  0  0  0  0
    0.7148   -6.7563   -0.0000 O   0  0  0  0  0  0  0  0  0  0  0  0
   -1.1991   -5.0038   -0.0000 C   0  0  0  0  0  0  0  0  0  0  0  0
    3.0784    7.3674   -0.0000 C   0  0  0  0  0  0  0  0  0  0  0  0
    2.0638    6.2605   -0.0000 C   0  0  0  0  0  0  0  0  0  0  0  0
    2.1676   -7.0676   -0.0000 C   0  0  0  0  0  0  0  0  0  0  0  0
    1.6026    7.7017   -0.0000 O   0  0  0  0  0  0  0  0  0  0  0  0
    4.0815    8.4858   -0.0000 O   0  0  0  0  0  0  0  0  0  0  0  0
    1.0377    5.1652   -0.0000 C   0  0  0  0  0  0  0  0  0  0  0  0
    0.8417    7.1599   -0.0000 C   0  0  0  0  0  0  0  0  0  0  0  0
    3.1706   -5.9492   -0.0000 O   0  0  0  0  0  0  0  0  0  0  0  0
    2.6057   -8.4858   -0.0000 C   0  0  0  0  0  0  0  0  0  0  0  0
    3.6203    9.9269   -0.0000 C   0  0  0  0  0  0  0  0  0  0  0  0
    4.0584   -8.7970   -0.0000 N   0  0  0  0  0  0  0  0  0  0  0  0
    1.5795   -9.5811   -0.0000 C   0  0  0  0  0  0  0  0  0  0  0  0
    4.6234   11.0453   -0.0000 C   0  0  0  0  0  0  0  0  0  0  0  0
    2.1445   10.2613   -0.0000 C   0  0  0  0  0  0  0  0  0  0  0  0
    5.0615   -7.6787   -0.0000 C   0  0  0  0  0  0  0  0  0  0  0  0
    0.1038   -9.2467   -0.0000 C   0  0  0  0  0  0  0  0  0  0  0  0
    2.0177  -10.9992   -0.0000 C   0  0  0  0  0  0  0  0  0  0  0  0
    4.1622   12.4865   -0.0000 O   0  0  0  0  0  0  0  0  0  0  0  0
    6.0761   10.7340   -0.0000 N   0  0  0  0  0  0  0  0  0  0  0  0
    6.5142   -7.9900   -0.0000 O   0  0  0  0  0  0  0  0  0  0  0  0
    4.6003   -6.2375   -0.0000 C   0  0  0  0  0  0  0  0  0  0  0  0
    7.0791   11.8524   -0.0000 C   0  0  0  0  0  0  0  0  0  0  0  0
    5.6034   -5.1191   -0.0000 O   0  0  0  0  0  0  0  0  0  0  0  0
    6.0530   -6.5488   -0.0000 C   0  0  0  0  0  0  0  0  0  0  0  0
    8.5319   11.5411   -0.0000 C   0  0  0  0  0  0  0  0  0  0  0  0
    6.6180   13.2936   -0.0000 C   0  0  0  0  0  0  0  0  0  0  0  0
    5.1422   -3.6779   -0.0000 C   0  0  0  0  0  0  0  0  0  0  0  0
    7.2521   -7.4250   -0.0000 C   0  0  0  0  0  0  0  0  0  0  0  0
    7.0561   -5.4304   -0.0000 C   0  0  0  0  0  0  0  0  0  0  0  0
    9.5349   12.6594   -0.0000 O   0  0  0  0  0  0  0  0  0  0  0  0
    8.9700   10.1229   -0.0000 O   0  0  0  0  0  0  0  0  0  0  0  0
    7.6210   14.4119   -0.0000 C   0  0  0  0  0  0  0  0  0  0  0  0
    5.1422   13.6279   -0.0000 C   0  0  0  0  0  0  0  0  0  0  0  0
    3.6664   -3.3436   -0.0000 O   0  0  0  0  0  0  0  0  0  0  0  0
    6.1453   -2.5596   -0.0000 C   0  0  0  0  0  0  0  0  0  0  0  0
    7.9439    9.0276   -0.0000 C   0  0  0  0  0  0  0  0  0  0  0  0
    5.6841   -1.1184   -0.0000 N   0  0  0  0  0  0  0  0  0  0  0  0
    7.5980   -2.8709   -0.0000 C   0  0  0  0  0  0  0  0  0  0  0  0
    8.3820    7.6095   -0.0000 C   0  0  0  0  0  0  0  0  0  0  0  0
    9.3966    8.7163   -0.0000 C   0  0  0  0  0  0  0  0  0  0  0  0
    6.6871   -0.0000   -0.0000 C   0  0  0  0  0  0  0  0  0  0  0  0
    8.6010   -1.7525   -0.0000 C   0  0  0  0  0  0  0  0  0  0  0  0
    8.0361   -4.2890   -0.0000 C   0  0  0  0  0  0  0  0  0  0  0  0
    9.8347    7.2982   -0.0000 O   0  0  0  0  0  0  0  0  0  0  0  0
    7.3559    6.5142   -0.0000 N   0  0  0  0  0  0  0  0  0  0  0  0
   10.5957    7.8401   -0.0000 C   0  0  0  0  0  0  0  0  0  0  0  0
   10.3997    9.8347   -0.0000 C   0  0  0  0  0  0  0  0  0  0  0  0
    8.1399   -0.3113   -0.0000 O   0  0  0  0  0  0  0  0  0  0  0  0
    6.2260    1.4412   -0.0000 C   0  0  0  0  0  0  0  0  0  0  0  0
    7.7940    5.0961   -0.0000 C   0  0  0  0  0  0  0  0  0  0  0  0
    7.2290    2.5596   -0.0000 O   0  0  0  0  0  0  0  0  0  0  0  0
    4.7502    1.7756   -0.0000 C   0  0  0  0  0  0  0  0  0  0  0  0
    6.7678    4.0008   -0.0000 C   0  0  0  0  0  0  0  0  0  0  0  0
    9.2467    4.7848   -0.0000 C   0  0  0  0  0  0  0  0  0  0  0  0
    5.2921    4.3351   -0.0000 O   0  0  0  0  0  0  0  0  0  0  0  0
    9.6848    3.3666   -0.0000 C   0  0  0  0  0  0  0  0  0  0  0  0
   10.2498    5.9031   -0.0000 C   0  0  0  0  0  0  0  0  0  0  0  0
  1  2  2  0  0  0  0
  2  3  1  0  0  0  0
  2  4  1  0  0  0  0
  3  5  1  0  0  0  0
  4  6  1  0  0  0  0
  4  7  1  1  0  0  0
  5  8  1  0  0  0  0
  5  9  1  1  0  0  0
  6 10  1  0  0  0  0
  7 11  1  0  0  0  0
  7 12  1  0  0  0  0
  8 13  2  0  0  0  0
  8 14  1  0  0  0  0
  9 15  1  0  0  0  0
  9 16  1  0  0  0  0
 10 17  2  0  0  0  0
 10 18  1  0  0  0  0
 14 19  1  0  0  0  0
 18 20  1  0  0  0  0
 18 21  1  6  0  0  0
 19 22  1  0  0  0  0
 19 23  1  6  0  0  0
 20 24  1  0  0  0  0
 22 25  2  0  0  0  0
 22 26  1  0  0  0  0
 23 27  1  0  0  0  0
 23 28  1  0  0  0  0
 24 29  2  0  0  0  0
 24 30  1  0  0  0  0
 26 31  1  0  0  0  0
 30 32  1  0  0  0  0
 30 33  1  1  0  0  0
 31 34  1  0  0  0  0
 31 35  1  6  0  0  0
 32 36  1  0  0  0  0
 33 37  1  0  0  0  0
 33 38  1  0  0  0  0
 34 39  2  0  0  0  0
 34 40  1  0  0  0  0
 36 41  2  0  0  0  0
 36 42  1  0  0  0  0
 40 43  1  0  0  0  0
 42 44  1  0  0  0  0
 42 45  1  6  0  0  0
 43 46  1  0  0  0  0
 43 47  1  6  0  0  0
 44 48  1  0  0  0  0
 45 49  1  0  0  0  0
 45 50  1  0  0  0  0
 46 51  2  0  0  0  0
 46 52  1  0  0  0  0
 47 53  1  0  0  0  0
 47 54  1  0  0  0  0
 48 55  2  0  0  0  0
 48 56  1  0  0  0  0
 52 57  1  0  0  0  0
 56 58  1  0  0  0  0
 56 59  1  6  0  0  0
 57 60  1  0  0  0  0
 57 61  1  6  0  0  0
 58 62  1  0  0  0  0
 59 63  1  0  0  0  0
 59 64  1  0  0  0  0
 60 65  2  0  0  0  0
 60 66  1  0  0  0  0
 61 67  1  0  0  0  0
 61 68  1  0  0  0  0
 62 69  2  0  0  0  0
 62 70  1  0  0  0  0
 66 71  1  0  0  0  0
 70 72  1  0  0  0  0
 70 73  1  1  0  0  0
 71 74  1  0  0  0  0
 71 75  1  1  0  0  0
 74 76  2  0  0  0  0
 75 77  1  0  0  0  0
 75 78  1  0  0  0  0
 72 74  1  0  0  0  0
M  END
>  <MolRegNo>
369669

>  <m>
<

>  <Value>
25

>  <Unit>
%

>  <Type>
Inhibition

>  <Ligand Efficiency>


>  <Binding Efficiency>


>  <Surface Efficiency>


>  <Assay Index>
294022

>  <Assay Category>


>  <Assay Organism>
SARS coronavirus

>  <Target ID>
100499

>  <Target Name>
SARS coronavirus

>  <Target Organism>
SARS coronavirus

>  <Target Description>
Target is a complete organism

>  <Sequence Accession>


>  <Reference>
J. Med. Chem. 50 (17), 4087-4095 (2007)

>  <Pubmed ID>
17663539

>  <DOI>
10.1021/jm070295s

>  <InChI-Key>
FCFNRCROJUBPLU-IDFHLRISSA-N

>  <Molecular Formula>
C54H90N6O18

>  <Monoisotopic Mass>
1110.63116

>  <Druglikeness>
2.2204

$$$$
Compound 131
Actelion Java MolfileCreator 1.0

 78 78  0  0  0  0  0  0  0  0999 V2000
    0.0000   -0.0000   -0.0000 O   0  0  0  0  0  0  0  0  0  0  0  0
    1.4527   -0.3113   -0.0000 C   0  0  0  0  0  0  0  0  0  0  0  0
    2.4558    0.8071   -0.0000 O   0  0  0  0  0  0  0  0  0  0  0  0
    1.8908   -1.7294   -0.0000 C   0  0  0  0  0  0  0  0  0  0  0  0
    1.9946    2.2483   -0.0000 C   0  0  0  0  0  0  0  0  0  0  0  0
    0.8647   -2.8247   -0.0000 N   0  0  0  0  0  0  0  0  0  0  0  0
    0.4151   -1.3951   -0.0000 C   0  0  0  0  0  0  0  0  0  0  0  0
    2.9977    3.3666   -0.0000 C   0  0  0  0  0  0  0  0  0  0  0  0
    0.5188    2.5826   -0.0000 C   0  0  0  0  0  0  0  0  0  0  0  0
    1.3028   -4.2429   -0.0000 C   0  0  0  0  0  0  0  0  0  0  0  0
   -0.6111   -2.4904   -0.0000 C   0  0  0  0  0  0  0  0  0  0  0  0
   -0.8071   -0.4958   -0.0000 C   0  0  0  0  0  0  0  0  0  0  0  0
    4.4504    3.0553   -0.0000 O   0  0  0  0  0  0  0  0  0  0  0  0
    2.5365    4.8078   -0.0000 N   0  0  0  0  0  0  0  0  0  0  0  0
    0.0576    4.0238   -0.0000 C   0  0  0  0  0  0  0  0  0  0  0  0
   -0.5073    1.4873   -0.0000 C   0  0  0  0  0  0  0  0  0  0  0  0
    2.7556   -4.5542   -0.0000 O   0  0  0  0  0  0  0  0  0  0  0  0
    0.2767   -5.3382   -0.0000 C   0  0  0  0  0  0  0  0  0  0  0  0
    3.5396    5.9262   -0.0000 C   0  0  0  0  0  0  0  0  0  0  0  0
    0.7148   -6.7563   -0.0000 O   0  0  0  0  0  0  0  0  0  0  0  0
   -1.1991   -5.0038   -0.0000 C   0  0  0  0  0  0  0  0  0  0  0  0
    3.0784    7.3674   -0.0000 C   0  0  0  0  0  0  0  0  0  0  0  0
    2.0638    6.2605   -0.0000 C   0  0  0  0  0  0  0  0  0  0  0  0
    2.1676   -7.0676   -0.0000 C   0  0  0  0  0  0  0  0  0  0  0  0
    1.6026    7.7017   -0.0000 O   0  0  0  0  0  0  0  0  0  0  0  0
    4.0815    8.4858   -0.0000 O   0  0  0  0  0  0  0  0  0  0  0  0
    1.0377    5.1652   -0.0000 C   0  0  0  0  0  0  0  0  0  0  0  0
    0.8417    7.1599   -0.0000 C   0  0  0  0  0  0  0  0  0  0  0  0
    3.1706   -5.9492   -0.0000 O   0  0  0  0  0  0  0  0  0  0  0  0
    2.6057   -8.4858   -0.0000 C   0  0  0  0  0  0  0  0  0  0  0  0
    3.6203    9.9269   -0.0000 C   0  0  0  0  0  0  0  0  0  0  0  0
    4.0584   -8.7970   -0.0000 N   0  0  0  0  0  0  0  0  0  0  0  0
    1.5795   -9.5811   -0.0000 C   0  0  0  0  0  0  0  0  0  0  0  0
    4.6234   11.0453   -0.0000 C   0  0  0  0  0  0  0  0  0  0  0  0
    2.1445   10.2613   -0.0000 C   0  0  0  0  0  0  0  0  0  0  0  0
    5.0615   -7.6787   -0.0000 C   0  0  0  0  0  0  0  0  0  0  0  0
    0.1038   -9.2467   -0.0000 C   0  0  0  0  0  0  0  0  0  0  0  0
    2.0177  -10.9992   -0.0000 C   0  0  0  0  0  0  0  0  0  0  0  0
    4.1622   12.4865   -0.0000 O   0  0  0  0  0  0  0  0  0  0  0  0
    6.0761   10.7340   -0.0000 N   0  0  0  0  0  0  0  0  0  0  0  0
    6.5142   -7.9900   -0.0000 O   0  0  0  0  0  0  0  0  0  0  0  0
    4.6003   -6.2375   -0.0000 C   0  0  0  0  0  0  0  0  0  0  0  0
    7.0791   11.8524   -0.0000 C   0  0  0  0  0  0  0  0  0  0  0  0
    5.6034   -5.1191   -0.0000 O   0  0  0  0  0  0  0  0  0  0  0  0
    6.0530   -6.5488   -0.0000 C   0  0  0  0  0  0  0  0  0  0  0  0
    8.5319   11.5411   -0.0000 C   0  0  0  0  0  0  0  0  0  0  0  0
    6.6180   13.2936   -0.0000 C   0  0  0  0  0  0  0  0  0  0  0  0
    5.1422   -3.6779   -0.0000 C   0  0  0  0  0  0  0  0  0  0  0  0
    7.2521   -7.4250   -0.0000 C   0  0  0  0  0  0  0  0  0  0  0  0
    7.0561   -5.4304   -0.0000 C   0  0  0  0  0  0  0  0  0  0  0  0
    9.5349   12.6594   -0.0000 O   0  0  0  0  0  0  0  0  0  0  0  0
    8.9700   10.1229   -0.0000 O   0  0  0  0  0  0  0  0  0  0  0  0
    7.6210   14.4119   -0.0000 C   0  0  0  0  0  0  0  0  0  0  0  0
    5.1422   13.6279   -0.0000 C   0  0  0  0  0  0  0  0  0  0  0  0
    3.6664   -3.3436   -0.0000 O   0  0  0  0  0  0  0  0  0  0  0  0
    6.1453   -2.5596   -0.0000 C   0  0  0  0  0  0  0  0  0  0  0  0
    7.9439    9.0276   -0.0000 C   0  0  0  0  0  0  0  0  0  0  0  0
    5.6841   -1.1184   -0.0000 N   0  0  0  0  0  0  0  0  0  0  0  0
    7.5980   -2.8709   -0.0000 C   0  0  0  0  0  0  0  0  0  0  0  0
    8.3820    7.6095   -0.0000 C   0  0  0  0  0  0  0  0  0  0  0  0
    9.3966    8.7163   -0.0000 C   0  0  0  0  0  0  0  0  0  0  0  0
    6.6871   -0.0000   -0.0000 C   0  0  0  0  0  0  0  0  0  0  0  0
    8.6010   -1.7525   -0.0000 C   0  0  0  0  0  0  0  0  0  0  0  0
    8.0361   -4.2890   -0.0000 C   0  0  0  0  0  0  0  0  0  0  0  0
    9.8347    7.2982   -0.0000 O   0  0  0  0  0  0  0  0  0  0  0  0
    7.3559    6.5142   -0.0000 N   0  0  0  0  0  0  0  0  0  0  0  0
   10.5957    7.8401   -0.0000 C   0  0  0  0  0  0  0  0  0  0  0  0
   10.3997    9.8347   -0.0000 C   0  0  0  0  0  0  0  0  0  0  0  0
    8.1399   -0.3113   -0.0000 O   0  0  0  0  0  0  0  0  0  0  0  0
    6.2260    1.4412   -0.0000 C   0  0  0  0  0  0  0  0  0  0  0  0
    7.7940    5.0961   -0.0000 C   0  0  0  0  0  0  0  0  0  0  0  0
    7.2290    2.5596   -0.0000 O   0  0  0  0  0  0  0  0  0  0  0  0
    4.7502    1.7756   -0.0000 C   0  0  0  0  0  0  0  0  0  0  0  0
    6.7678    4.0008   -0.0000 C   0  0  0  0  0  0  0  0  0  0  0  0
    9.2467    4.7848   -0.0000 C   0  0  0  0  0  0  0  0  0  0  0  0
    5.2921    4.3351   -0.0000 O   0  0  0  0  0  0  0  0  0  0  0  0
    9.6848    3.3666   -0.0000 C   0  0  0  0  0  0  0  0  0  0  0  0
   10.2498    5.9031   -0.0000 C   0  0  0  0  0  0  0  0  0  0  0  0
  1  2  2  0  0  0  0
  2  3  1  0  0  0  0
  2  4  1  0  0  0  0
  3  5  1  0  0  0  0
  4  6  1  0  0  0  0
  4  7  1  1  0  0  0
  5  8  1  0  0  0  0
  5  9  1  1  0  0  0
  6 10  1  0  0  0  0
  7 11  1  0  0  0  0
  7 12  1  0  0  0  0
  8 13  2  0  0  0  0
  8 14  1  0  0  0  0
  9 15  1  0  0  0  0
  9 16  1  0  0  0  0
 10 17  2  0  0  0  0
 10 18  1  0  0  0  0
 14 19  1  0  0  0  0
 18 20  1  0  0  0  0
 18 21  1  6  0  0  0
 19 22  1  0  0  0  0
 19 23  1  6  0  0  0
 20 24  1  0  0  0  0
 22 25  2  0  0  0  0
 22 26  1  0  0  0  0
 23 27  1  0  0  0  0
 23 28  1  0  0  0  0
 24 29  2  0  0  0  0
 24 30  1  0  0  0  0
 26 31  1  0  0  0  0
 30 32  1  0  0  0  0
 30 33  1  1  0  0  0
 31 34  1  0  0  0  0
 31 35  1  6  0  0  0
 32 36  1  0  0  0  0
 33 37  1  0  0  0  0
 33 38  1  0  0  0  0
 34 39  2  0  0  0  0
 34 40  1  0  0  0  0
 36 41  2  0  0  0  0
 36 42  1  0  0  0  0
 40 43  1  0  0  0  0
 42 44  1  0  0  0  0
 42 45  1  6  0  0  0
 43 46  1  0  0  0  0
 43 47  1  6  0  0  0
 44 48  1  0  0  0  0
 45 49  1  0  0  0  0
 45 50  1  0  0  0  0
 46 51  2  0  0  0  0
 46 52  1  0  0  0  0
 47 53  1  0  0  0  0
 47 54  1  0  0  0  0
 48 55  2  0  0  0  0
 48 56  1  0  0  0  0
 52 57  1  0  0  0  0
 56 58  1  0  0  0  0
 56 59  1  6  0  0  0
 57 60  1  0  0  0  0
 57 61  1  6  0  0  0
 58 62  1  0  0  0  0
 59 63  1  0  0  0  0
 59 64  1  0  0  0  0
 60 65  2  0  0  0  0
 60 66  1  0  0  0  0
 61 67  1  0  0  0  0
 61 68  1  0  0  0  0
 62 69  2  0  0  0  0
 62 70  1  0  0  0  0
 66 71  1  0  0  0  0
 70 72  1  0  0  0  0
 70 73  1  1  0  0  0
 71 74  1  0  0  0  0
 71 75  1  1  0  0  0
 74 76  2  0  0  0  0
 75 77  1  0  0  0  0
 75 78  1  0  0  0  0
 72 74  1  0  0  0  0
M  END
>  <MolRegNo>
369669

>  <m>
=

>  <Value>
25

>  <Unit>
%

>  <Type>
Inhibition

>  <Ligand Efficiency>


>  <Binding Efficiency>


>  <Surface Efficiency>


>  <Assay Index>
294024

>  <Assay Category>


>  <Assay Organism>
SARS coronavirus

>  <Target ID>
100499

>  <Target Name>
SARS coronavirus

>  <Target Organism>
SARS coronavirus

>  <Target Description>
Target is a complete organism

>  <Sequence Accession>


>  <Reference>
J. Med. Chem. 50 (17), 4087-4095 (2007)

>  <Pubmed ID>
17663539

>  <DOI>
10.1021/jm070295s

>  <InChI-Key>
FCFNRCROJUBPLU-IDFHLRISSA-N

>  <Molecular Formula>
C54H90N6O18

>  <Monoisotopic Mass>
1110.63116

>  <Druglikeness>
2.2204

$$$$
Compound 132
Actelion Java MolfileCreator 1.0

 78 78  0  0  0  0  0  0  0  0999 V2000
    0.0000   -0.0000   -0.0000 O   0  0  0  0  0  0  0  0  0  0  0  0
    1.4527   -0.3113   -0.0000 C   0  0  0  0  0  0  0  0  0  0  0  0
    2.4558    0.8071   -0.0000 O   0  0  0  0  0  0  0  0  0  0  0  0
    1.8908   -1.7294   -0.0000 C   0  0  0  0  0  0  0  0  0  0  0  0
    1.9946    2.2483   -0.0000 C   0  0  0  0  0  0  0  0  0  0  0  0
    0.8647   -2.8247   -0.0000 N   0  0  0  0  0  0  0  0  0  0  0  0
    0.4151   -1.3951   -0.0000 C   0  0  0  0  0  0  0  0  0  0  0  0
    2.9977    3.3666   -0.0000 C   0  0  0  0  0  0  0  0  0  0  0  0
    0.5188    2.5826   -0.0000 C   0  0  0  0  0  0  0  0  0  0  0  0
    1.3028   -4.2429   -0.0000 C   0  0  0  0  0  0  0  0  0  0  0  0
   -0.6111   -2.4904   -0.0000 C   0  0  0  0  0  0  0  0  0  0  0  0
   -0.8071   -0.4958   -0.0000 C   0  0  0  0  0  0  0  0  0  0  0  0
    4.4504    3.0553   -0.0000 O   0  0  0  0  0  0  0  0  0  0  0  0
    2.5365    4.8078   -0.0000 N   0  0  0  0  0  0  0  0  0  0  0  0
    0.0576    4.0238   -0.0000 C   0  0  0  0  0  0  0  0  0  0  0  0
   -0.5073    1.4873   -0.0000 C   0  0  0  0  0  0  0  0  0  0  0  0
    2.7556   -4.5542   -0.0000 O   0  0  0  0  0  0  0  0  0  0  0  0
    0.2767   -5.3382   -0.0000 C   0  0  0  0  0  0  0  0  0  0  0  0
    3.5396    5.9262   -0.0000 C   0  0  0  0  0  0  0  0  0  0  0  0
    0.7148   -6.7563   -0.0000 O   0  0  0  0  0  0  0  0  0  0  0  0
   -1.1991   -5.0038   -0.0000 C   0  0  0  0  0  0  0  0  0  0  0  0
    3.0784    7.3674   -0.0000 C   0  0  0  0  0  0  0  0  0  0  0  0
    2.0638    6.2605   -0.0000 C   0  0  0  0  0  0  0  0  0  0  0  0
    2.1676   -7.0676   -0.0000 C   0  0  0  0  0  0  0  0  0  0  0  0
    1.6026    7.7017   -0.0000 O   0  0  0  0  0  0  0  0  0  0  0  0
    4.0815    8.4858   -0.0000 O   0  0  0  0  0  0  0  0  0  0  0  0
    1.0377    5.1652   -0.0000 C   0  0  0  0  0  0  0  0  0  0  0  0
    0.8417    7.1599   -0.0000 C   0  0  0  0  0  0  0  0  0  0  0  0
    3.1706   -5.9492   -0.0000 O   0  0  0  0  0  0  0  0  0  0  0  0
    2.6057   -8.4858   -0.0000 C   0  0  0  0  0  0  0  0  0  0  0  0
    3.6203    9.9269   -0.0000 C   0  0  0  0  0  0  0  0  0  0  0  0
    4.0584   -8.7970   -0.0000 N   0  0  0  0  0  0  0  0  0  0  0  0
    1.5795   -9.5811   -0.0000 C   0  0  0  0  0  0  0  0  0  0  0  0
    4.6234   11.0453   -0.0000 C   0  0  0  0  0  0  0  0  0  0  0  0
    2.1445   10.2613   -0.0000 C   0  0  0  0  0  0  0  0  0  0  0  0
    5.0615   -7.6787   -0.0000 C   0  0  0  0  0  0  0  0  0  0  0  0
    0.1038   -9.2467   -0.0000 C   0  0  0  0  0  0  0  0  0  0  0  0
    2.0177  -10.9992   -0.0000 C   0  0  0  0  0  0  0  0  0  0  0  0
    4.1622   12.4865   -0.0000 O   0  0  0  0  0  0  0  0  0  0  0  0
    6.0761   10.7340   -0.0000 N   0  0  0  0  0  0  0  0  0  0  0  0
    6.5142   -7.9900   -0.0000 O   0  0  0  0  0  0  0  0  0  0  0  0
    4.6003   -6.2375   -0.0000 C   0  0  0  0  0  0  0  0  0  0  0  0
    7.0791   11.8524   -0.0000 C   0  0  0  0  0  0  0  0  0  0  0  0
    5.6034   -5.1191   -0.0000 O   0  0  0  0  0  0  0  0  0  0  0  0
    6.0530   -6.5488   -0.0000 C   0  0  0  0  0  0  0  0  0  0  0  0
    8.5319   11.5411   -0.0000 C   0  0  0  0  0  0  0  0  0  0  0  0
    6.6180   13.2936   -0.0000 C   0  0  0  0  0  0  0  0  0  0  0  0
    5.1422   -3.6779   -0.0000 C   0  0  0  0  0  0  0  0  0  0  0  0
    7.2521   -7.4250   -0.0000 C   0  0  0  0  0  0  0  0  0  0  0  0
    7.0561   -5.4304   -0.0000 C   0  0  0  0  0  0  0  0  0  0  0  0
    9.5349   12.6594   -0.0000 O   0  0  0  0  0  0  0  0  0  0  0  0
    8.9700   10.1229   -0.0000 O   0  0  0  0  0  0  0  0  0  0  0  0
    7.6210   14.4119   -0.0000 C   0  0  0  0  0  0  0  0  0  0  0  0
    5.1422   13.6279   -0.0000 C   0  0  0  0  0  0  0  0  0  0  0  0
    3.6664   -3.3436   -0.0000 O   0  0  0  0  0  0  0  0  0  0  0  0
    6.1453   -2.5596   -0.0000 C   0  0  0  0  0  0  0  0  0  0  0  0
    7.9439    9.0276   -0.0000 C   0  0  0  0  0  0  0  0  0  0  0  0
    5.6841   -1.1184   -0.0000 N   0  0  0  0  0  0  0  0  0  0  0  0
    7.5980   -2.8709   -0.0000 C   0  0  0  0  0  0  0  0  0  0  0  0
    8.3820    7.6095   -0.0000 C   0  0  0  0  0  0  0  0  0  0  0  0
    9.3966    8.7163   -0.0000 C   0  0  0  0  0  0  0  0  0  0  0  0
    6.6871   -0.0000   -0.0000 C   0  0  0  0  0  0  0  0  0  0  0  0
    8.6010   -1.7525   -0.0000 C   0  0  0  0  0  0  0  0  0  0  0  0
    8.0361   -4.2890   -0.0000 C   0  0  0  0  0  0  0  0  0  0  0  0
    9.8347    7.2982   -0.0000 O   0  0  0  0  0  0  0  0  0  0  0  0
    7.3559    6.5142   -0.0000 N   0  0  0  0  0  0  0  0  0  0  0  0
   10.5957    7.8401   -0.0000 C   0  0  0  0  0  0  0  0  0  0  0  0
   10.3997    9.8347   -0.0000 C   0  0  0  0  0  0  0  0  0  0  0  0
    8.1399   -0.3113   -0.0000 O   0  0  0  0  0  0  0  0  0  0  0  0
    6.2260    1.4412   -0.0000 C   0  0  0  0  0  0  0  0  0  0  0  0
    7.7940    5.0961   -0.0000 C   0  0  0  0  0  0  0  0  0  0  0  0
    7.2290    2.5596   -0.0000 O   0  0  0  0  0  0  0  0  0  0  0  0
    4.7502    1.7756   -0.0000 C   0  0  0  0  0  0  0  0  0  0  0  0
    6.7678    4.0008   -0.0000 C   0  0  0  0  0  0  0  0  0  0  0  0
    9.2467    4.7848   -0.0000 C   0  0  0  0  0  0  0  0  0  0  0  0
    5.2921    4.3351   -0.0000 O   0  0  0  0  0  0  0  0  0  0  0  0
    9.6848    3.3666   -0.0000 C   0  0  0  0  0  0  0  0  0  0  0  0
   10.2498    5.9031   -0.0000 C   0  0  0  0  0  0  0  0  0  0  0  0
  1  2  2  0  0  0  0
  2  3  1  0  0  0  0
  2  4  1  0  0  0  0
  3  5  1  0  0  0  0
  4  6  1  0  0  0  0
  4  7  1  1  0  0  0
  5  8  1  0  0  0  0
  5  9  1  1  0  0  0
  6 10  1  0  0  0  0
  7 11  1  0  0  0  0
  7 12  1  0  0  0  0
  8 13  2  0  0  0  0
  8 14  1  0  0  0  0
  9 15  1  0  0  0  0
  9 16  1  0  0  0  0
 10 17  2  0  0  0  0
 10 18  1  0  0  0  0
 14 19  1  0  0  0  0
 18 20  1  0  0  0  0
 18 21  1  6  0  0  0
 19 22  1  0  0  0  0
 19 23  1  6  0  0  0
 20 24  1  0  0  0  0
 22 25  2  0  0  0  0
 22 26  1  0  0  0  0
 23 27  1  0  0  0  0
 23 28  1  0  0  0  0
 24 29  2  0  0  0  0
 24 30  1  0  0  0  0
 26 31  1  0  0  0  0
 30 32  1  0  0  0  0
 30 33  1  1  0  0  0
 31 34  1  0  0  0  0
 31 35  1  6  0  0  0
 32 36  1  0  0  0  0
 33 37  1  0  0  0  0
 33 38  1  0  0  0  0
 34 39  2  0  0  0  0
 34 40  1  0  0  0  0
 36 41  2  0  0  0  0
 36 42  1  0  0  0  0
 40 43  1  0  0  0  0
 42 44  1  0  0  0  0
 42 45  1  6  0  0  0
 43 46  1  0  0  0  0
 43 47  1  6  0  0  0
 44 48  1  0  0  0  0
 45 49  1  0  0  0  0
 45 50  1  0  0  0  0
 46 51  2  0  0  0  0
 46 52  1  0  0  0  0
 47 53  1  0  0  0  0
 47 54  1  0  0  0  0
 48 55  2  0  0  0  0
 48 56  1  0  0  0  0
 52 57  1  0  0  0  0
 56 58  1  0  0  0  0
 56 59  1  6  0  0  0
 57 60  1  0  0  0  0
 57 61  1  6  0  0  0
 58 62  1  0  0  0  0
 59 63  1  0  0  0  0
 59 64  1  0  0  0  0
 60 65  2  0  0  0  0
 60 66  1  0  0  0  0
 61 67  1  0  0  0  0
 61 68  1  0  0  0  0
 62 69  2  0  0  0  0
 62 70  1  0  0  0  0
 66 71  1  0  0  0  0
 70 72  1  0  0  0  0
 70 73  1  1  0  0  0
 71 74  1  0  0  0  0
 71 75  1  1  0  0  0
 74 76  2  0  0  0  0
 75 77  1  0  0  0  0
 75 78  1  0  0  0  0
 72 74  1  0  0  0  0
M  END
>  <MolRegNo>
369669

>  <m>
=

>  <Value>
25

>  <Unit>
%

>  <Type>
Inhibition

>  <Ligand Efficiency>


>  <Binding Efficiency>


>  <Surface Efficiency>


>  <Assay Index>
294023

>  <Assay Category>


>  <Assay Organism>
SARS coronavirus

>  <Target ID>
100499

>  <Target Name>
SARS coronavirus

>  <Target Organism>
SARS coronavirus

>  <Target Description>
Target is a complete organism

>  <Sequence Accession>


>  <Reference>
J. Med. Chem. 50 (17), 4087-4095 (2007)

>  <Pubmed ID>
17663539

>  <DOI>
10.1021/jm070295s

>  <InChI-Key>
FCFNRCROJUBPLU-IDFHLRISSA-N

>  <Molecular Formula>
C54H90N6O18

>  <Monoisotopic Mass>
1110.63116

>  <Druglikeness>
2.2204

$$$$
Compound 133
Actelion Java MolfileCreator 1.0

 38 42  0  0  0  0  0  0  0  0999 V2000
    0.0000   -0.0000   -0.0000 Cl  0  0  0  0  0  0  0  0  0  0  0  0
   -0.0123   -1.2375   -0.0000 C   0  0  0  0  0  0  0  0  0  0  0  0
   -1.3723   -1.9971   -0.0000 C   0  0  0  0  0  0  0  0  0  0  0  0
    1.3233   -1.9971   -0.0000 C   0  0  0  0  0  0  0  0  0  0  0  0
   -1.3845   -3.5409   -0.0000 C   0  0  0  0  0  0  0  0  0  0  0  0
    1.3110   -3.5409   -0.0000 C   0  0  0  0  0  0  0  0  0  0  0  0
   -0.0490   -4.3006   -0.0000 C   0  0  0  0  0  0  0  0  0  0  0  0
   -2.7445   -4.3006   -0.0000 C   0  0  0  0  0  0  0  0  0  0  0  0
   -0.0613   -5.8444   -0.0000 C   0  0  0  0  0  0  0  0  0  0  0  0
   -4.1535   -3.6512   -0.0000 O   0  0  0  0  0  0  0  0  0  0  0  0
   -2.8916   -5.8199   -0.0000 C   0  0  0  0  0  0  0  0  0  0  0  0
    1.0047   -6.4570   -0.0000 O   0  0  0  0  0  0  0  0  0  0  0  0
   -1.1517   -6.4570   -0.0000 O   0  0  0  0  0  0  0  0  0  0  0  0
   -5.2073   -4.7907   -0.0000 C   0  0  0  0  0  0  0  0  0  0  0  0
   -4.4231   -6.1384   -0.0000 C   0  0  0  0  0  0  0  0  0  0  0  0
   -6.7633   -4.6191   -0.0000 C   0  0  0  0  0  0  0  0  0  0  0  0
   -7.6822   -5.8689   -0.0000 C   0  0  0  0  0  0  0  0  0  0  0  0
   -7.2044   -7.3147   -0.0000 C   0  0  0  0  0  0  0  0  0  0  0  0
   -9.2383   -5.8444   -0.0000 C   0  0  0  0  0  0  0  0  0  0  0  0
   -6.0282   -7.6822   -0.0000 O   0  0  0  0  0  0  0  0  0  0  0  0
   -8.4786   -8.2213   -0.0000 N   0  0  0  0  0  0  0  0  0  0  0  0
   -9.7284   -7.3147   -0.0000 N   0  0  0  0  0  0  0  0  0  0  0  0
  -10.1572   -4.5701   -0.0000 C   0  0  0  0  0  0  0  0  0  0  0  0
   -8.4909   -9.7651   -0.0000 C   0  0  0  0  0  0  0  0  0  0  0  0
   -9.6426   -3.0998   -0.0000 C   0  0  0  0  0  0  0  0  0  0  0  0
  -11.7010   -4.8397   -0.0000 C   0  0  0  0  0  0  0  0  0  0  0  0
   -7.2166  -10.6228   -0.0000 C   0  0  0  0  0  0  0  0  0  0  0  0
   -9.9122  -10.4268   -0.0000 C   0  0  0  0  0  0  0  0  0  0  0  0
  -10.6596   -1.8991   -0.0000 C   0  0  0  0  0  0  0  0  0  0  0  0
  -12.7179   -3.6389   -0.0000 C   0  0  0  0  0  0  0  0  0  0  0  0
   -7.3392  -12.1666   -0.0000 C   0  0  0  0  0  0  0  0  0  0  0  0
  -10.0347  -11.9706   -0.0000 C   0  0  0  0  0  0  0  0  0  0  0  0
  -12.2033   -2.1687   -0.0000 C   0  0  0  0  0  0  0  0  0  0  0  0
   -8.7482  -12.8282   -0.0000 C   0  0  0  0  0  0  0  0  0  0  0  0
   -8.8707  -14.3720   -0.0000 C   0  0  0  0  0  0  0  0  0  0  0  0
   -7.8538  -15.0581   -0.0000 C   0  0  0  0  0  0  0  0  0  0  0  0
   -9.9979  -14.8989   -0.0000 C   0  0  0  0  0  0  0  0  0  0  0  0
   -8.9810  -15.5972   -0.0000 C   0  0  0  0  0  0  0  0  0  0  0  0
  1  2  1  0  0  0  0
  2  3  2  0  0  0  0
  2  4  1  0  0  0  0
  3  5  1  0  0  0  0
  4  6  2  0  0  0  0
  5  7  2  0  0  0  0
  5  8  1  0  0  0  0
  7  9  1  0  0  0  0
  8 10  1  0  0  0  0
  8 11  2  0  0  0  0
  9 12  2  0  0  0  0
  9 13  1  0  0  0  0
 10 14  1  0  0  0  0
 11 15  1  0  0  0  0
 14 16  1  0  0  0  0
 16 17  2  0  0  0  0
 17 18  1  0  0  0  0
 17 19  1  0  0  0  0
 18 20  2  0  0  0  0
 18 21  1  0  0  0  0
 19 22  2  0  0  0  0
 19 23  1  0  0  0  0
 21 24  1  0  0  0  0
 23 25  2  0  0  0  0
 23 26  1  0  0  0  0
 24 27  2  0  0  0  0
 24 28  1  0  0  0  0
 25 29  1  0  0  0  0
 26 30  2  0  0  0  0
 27 31  1  0  0  0  0
 28 32  2  0  0  0  0
 29 33  2  0  0  0  0
 31 34  2  0  0  0  0
 34 35  1  0  0  0  0
 35 36  1  0  0  0  0
 35 37  1  0  0  0  0
 35 38  1  0  0  0  0
  6  7  1  0  0  0  0
 14 15  2  0  0  0  0
 21 22  1  0  0  0  0
 30 33  1  0  0  0  0
 32 34  1  0  0  0  0
M  END
>  <MolRegNo>
2087893

>  <m>
=

>  <Value>
5800

>  <Unit>
nM

>  <Type>
IC50

>  <Ligand Efficiency>
0.19

>  <Binding Efficiency>
9.97

>  <Surface Efficiency>
6.30

>  <Assay Index>
1017144

>  <Assay Category>


>  <Assay Organism>
SARS coronavirus

>  <Target ID>
101075

>  <Target Name>
Replicase polyprotein 1ab

>  <Target Organism>
SARS coronavirus

>  <Target Description>
Target is a single protein chain

>  <Sequence Accession>
P0C6X7

>  <Reference>
Bioorg. Med. Chem. 24 (13), 3035-3042 (2016)

>  <Pubmed ID>
27240464

>  <DOI>
10.1016/j.bmc.2016.05.013

>  <InChI-Key>
FCOYPXSNXIJBGX-UHFFFAOYSA-N

>  <Molecular Formula>
C31H25N2O4Cl

>  <Monoisotopic Mass>
524.150285

>  <Druglikeness>
1.95

$$$$
Compound 134
Actelion Java MolfileCreator 1.0

 23 24  0  0  0  0  0  0  0  0999 V2000
    0.0000   -0.0000   -0.0000 Cl  0  0  0  0  0  0  0  0  0  0  0  0
   -0.0119   -1.4952   -0.0000 C   0  0  0  0  0  0  0  0  0  0  0  0
   -1.3291   -2.2310   -0.0000 C   0  0  0  0  0  0  0  0  0  0  0  0
    1.2816   -2.2310   -0.0000 C   0  0  0  0  0  0  0  0  0  0  0  0
   -1.3410   -3.7262   -0.0000 C   0  0  0  0  0  0  0  0  0  0  0  0
    1.2697   -3.7262   -0.0000 C   0  0  0  0  0  0  0  0  0  0  0  0
   -0.0475   -4.4619   -0.0000 C   0  0  0  0  0  0  0  0  0  0  0  0
   -0.0593   -5.9571   -0.0000 C   0  0  0  0  0  0  0  0  0  0  0  0
    1.2341   -6.6929   -0.0000 O   0  0  0  0  0  0  0  0  0  0  0  0
    1.2223   -8.1881   -0.0000 C   0  0  0  0  0  0  0  0  0  0  0  0
   -0.0949   -8.9357   -0.0000 C   0  0  0  0  0  0  0  0  0  0  0  0
    2.5158   -8.9357   -0.0000 C   0  0  0  0  0  0  0  0  0  0  0  0
   -0.1068  -10.4309   -0.0000 C   0  0  0  0  0  0  0  0  0  0  0  0
    2.5039  -10.4309   -0.0000 C   0  0  0  0  0  0  0  0  0  0  0  0
   -1.4240  -11.1667   -0.0000 C   0  0  0  0  0  0  0  0  0  0  0  0
    1.1867  -11.1667   -0.0000 C   0  0  0  0  0  0  0  0  0  0  0  0
   -2.7412  -10.4072   -0.0000 O   0  0  0  0  0  0  0  0  0  0  0  0
   -1.4359  -12.6619   -0.0000 C   0  0  0  0  0  0  0  0  0  0  0  0
   -2.7531  -13.3976   -0.0000 C   0  0  0  0  0  0  0  0  0  0  0  0
   -4.0703  -12.6382   -0.0000 O   0  0  0  0  0  0  0  0  0  0  0  0
   -2.7650  -14.8929   -0.0000 C   0  0  0  0  0  0  0  0  0  0  0  0
   -4.0822  -15.6286   -0.0000 O   0  0  0  0  0  0  0  0  0  0  0  0
   -1.4715  -15.6286   -0.0000 O   0  0  0  0  0  0  0  0  0  0  0  0
  1  2  1  0  0  0  0
  2  3  2  0  0  0  0
  2  4  1  0  0  0  0
  3  5  1  0  0  0  0
  4  6  2  0  0  0  0
  5  7  2  0  0  0  0
  7  8  1  0  0  0  0
  8  9  1  0  0  0  0
  9 10  1  0  0  0  0
 10 11  2  0  0  0  0
 10 12  1  0  0  0  0
 11 13  1  0  0  0  0
 12 14  2  0  0  0  0
 13 15  1  0  0  0  0
 13 16  2  0  0  0  0
 15 17  2  0  0  0  0
 15 18  1  0  0  0  0
 18 19  2  0  0  0  0
 19 20  1  0  0  0  0
 19 21  1  0  0  0  0
 21 22  2  0  0  0  0
 21 23  1  0  0  0  0
  6  7  1  0  0  0  0
 14 16  1  0  0  0  0
M  END
>  <MolRegNo>
478459

>  <m>
=

>  <Value>
24400

>  <Unit>
nM

>  <Type>
IC50

>  <Ligand Efficiency>
0.27

>  <Binding Efficiency>
13.86

>  <Surface Efficiency>
5.50

>  <Assay Index>
414789

>  <Assay Category>


>  <Assay Organism>
SARS coronavirus

>  <Target ID>
101075

>  <Target Name>
Replicase polyprotein 1ab

>  <Target Organism>
SARS coronavirus

>  <Target Description>
Target is a single protein chain

>  <Sequence Accession>
P0C6X7

>  <Reference>
Bioorg. Med. Chem. Lett. 19 (6), 1636-1638 (2009)

>  <Pubmed ID>
19233643

>  <DOI>
10.1016/j.bmcl.2009.02.010

>  <InChI-Key>
FCXRCRRPFVTAPG-UHFFFAOYSA-N

>  <Molecular Formula>
C17H13O5Cl

>  <Monoisotopic Mass>
332.045152

>  <Druglikeness>
1.01

$$$$
Compound 135
Actelion Java MolfileCreator 1.0

 23 24  0  0  0  0  0  0  0  0999 V2000
    0.0000   -0.0000   -0.0000 Cl  0  0  0  0  0  0  0  0  0  0  0  0
   -0.0119   -1.4952   -0.0000 C   0  0  0  0  0  0  0  0  0  0  0  0
   -1.3291   -2.2310   -0.0000 C   0  0  0  0  0  0  0  0  0  0  0  0
    1.2816   -2.2310   -0.0000 C   0  0  0  0  0  0  0  0  0  0  0  0
   -1.3410   -3.7262   -0.0000 C   0  0  0  0  0  0  0  0  0  0  0  0
    1.2697   -3.7262   -0.0000 C   0  0  0  0  0  0  0  0  0  0  0  0
   -0.0475   -4.4619   -0.0000 C   0  0  0  0  0  0  0  0  0  0  0  0
   -0.0593   -5.9571   -0.0000 C   0  0  0  0  0  0  0  0  0  0  0  0
    1.2341   -6.6929   -0.0000 O   0  0  0  0  0  0  0  0  0  0  0  0
    1.2223   -8.1881   -0.0000 C   0  0  0  0  0  0  0  0  0  0  0  0
   -0.0949   -8.9357   -0.0000 C   0  0  0  0  0  0  0  0  0  0  0  0
    2.5158   -8.9357   -0.0000 C   0  0  0  0  0  0  0  0  0  0  0  0
   -0.1068  -10.4309   -0.0000 C   0  0  0  0  0  0  0  0  0  0  0  0
    2.5039  -10.4309   -0.0000 C   0  0  0  0  0  0  0  0  0  0  0  0
   -1.4240  -11.1667   -0.0000 C   0  0  0  0  0  0  0  0  0  0  0  0
    1.1867  -11.1667   -0.0000 C   0  0  0  0  0  0  0  0  0  0  0  0
   -2.7412  -10.4072   -0.0000 O   0  0  0  0  0  0  0  0  0  0  0  0
   -1.4359  -12.6619   -0.0000 C   0  0  0  0  0  0  0  0  0  0  0  0
   -2.7531  -13.3976   -0.0000 C   0  0  0  0  0  0  0  0  0  0  0  0
   -4.0703  -12.6382   -0.0000 O   0  0  0  0  0  0  0  0  0  0  0  0
   -2.7650  -14.8929   -0.0000 C   0  0  0  0  0  0  0  0  0  0  0  0
   -4.0822  -15.6286   -0.0000 O   0  0  0  0  0  0  0  0  0  0  0  0
   -1.4715  -15.6286   -0.0000 O   0  0  0  0  0  0  0  0  0  0  0  0
  1  2  1  0  0  0  0
  2  3  2  0  0  0  0
  2  4  1  0  0  0  0
  3  5  1  0  0  0  0
  4  6  2  0  0  0  0
  5  7  2  0  0  0  0
  7  8  1  0  0  0  0
  8  9  1  0  0  0  0
  9 10  1  0  0  0  0
 10 11  2  0  0  0  0
 10 12  1  0  0  0  0
 11 13  1  0  0  0  0
 12 14  2  0  0  0  0
 13 15  1  0  0  0  0
 13 16  2  0  0  0  0
 15 17  2  0  0  0  0
 15 18  1  0  0  0  0
 18 19  2  0  0  0  0
 19 20  1  0  0  0  0
 19 21  1  0  0  0  0
 21 22  2  0  0  0  0
 21 23  1  0  0  0  0
  6  7  1  0  0  0  0
 14 16  1  0  0  0  0
M  END
>  <MolRegNo>
478459

>  <m>
=

>  <Value>
13600

>  <Unit>
nM

>  <Type>
IC50

>  <Ligand Efficiency>
0.29

>  <Binding Efficiency>
14.63

>  <Surface Efficiency>
5.81

>  <Assay Index>
414790

>  <Assay Category>


>  <Assay Organism>
SARS coronavirus

>  <Target ID>
101075

>  <Target Name>
Replicase polyprotein 1ab

>  <Target Organism>
SARS coronavirus

>  <Target Description>
Target is a single protein chain

>  <Sequence Accession>
P0C6X7

>  <Reference>
Bioorg. Med. Chem. Lett. 19 (6), 1636-1638 (2009)

>  <Pubmed ID>
19233643

>  <DOI>
10.1016/j.bmcl.2009.02.010

>  <InChI-Key>
FCXRCRRPFVTAPG-UHFFFAOYSA-N

>  <Molecular Formula>
C17H13O5Cl

>  <Monoisotopic Mass>
332.045152

>  <Druglikeness>
1.01

$$$$
Compound 136
Actelion Java MolfileCreator 1.0

 14 15  0  0  0  0  0  0  0  0999 V2000
    0.0000   -0.0000   -0.0000 S   0  0  0  0  0  0  0  0  0  0  0  0
    1.3547    0.6298   -0.0000 C   0  0  0  0  0  0  0  0  0  0  0  0
   -1.0220    1.1289   -0.0000 C   0  0  0  0  0  0  0  0  0  0  0  0
    2.6500   -0.1069   -0.0000 C   0  0  0  0  0  0  0  0  0  0  0  0
    1.1883    2.1390   -0.0000 C   0  0  0  0  0  0  0  0  0  0  0  0
   -0.2852    2.4480   -0.0000 C   0  0  0  0  0  0  0  0  0  0  0  0
    2.6381   -1.6042   -0.0000 O   0  0  0  0  0  0  0  0  0  0  0  0
    3.9453    0.6536   -0.0000 O   0  0  0  0  0  0  0  0  0  0  0  0
    5.2405   -0.0832   -0.0000 C   0  0  0  0  0  0  0  0  0  0  0  0
    5.2286   -1.5805   -0.0000 N   0  0  0  0  0  0  0  0  0  0  0  0
    6.5239    0.6773   -0.0000 C   0  0  0  0  0  0  0  0  0  0  0  0
    6.5239   -2.3172   -0.0000 C   0  0  0  0  0  0  0  0  0  0  0  0
    7.8192   -0.0594   -0.0000 C   0  0  0  0  0  0  0  0  0  0  0  0
    7.8192   -1.5567   -0.0000 C   0  0  0  0  0  0  0  0  0  0  0  0
  1  2  1  0  0  0  0
  1  3  1  0  0  0  0
  2  4  1  0  0  0  0
  2  5  2  0  0  0  0
  3  6  2  0  0  0  0
  4  7  2  0  0  0  0
  4  8  1  0  0  0  0
  8  9  1  0  0  0  0
  9 10  2  0  0  0  0
  9 11  1  0  0  0  0
 10 12  1  0  0  0  0
 11 13  2  0  0  0  0
 12 14  2  0  0  0  0
  5  6  1  0  0  0  0
 13 14  1  0  0  0  0
M  END
>  <MolRegNo>
371833

>  <m>
=

>  <Value>
13

>  <Unit>
%

>  <Type>
Inhibition

>  <Ligand Efficiency>


>  <Binding Efficiency>


>  <Surface Efficiency>


>  <Assay Index>
278390

>  <Assay Category>


>  <Assay Organism>
SARS coronavirus

>  <Target ID>
20012

>  <Target Name>
SARS coronavirus 3C-like proteinase

>  <Target Organism>
SARS coronavirus

>  <Target Description>
Target is a single protein chain

>  <Sequence Accession>
P0C6U8

>  <Reference>
J. Med. Chem. 50 (8), 1850-1864 (2007)

>  <Pubmed ID>
17381079

>  <DOI>
10.1021/jm061425k

>  <InChI-Key>
FDFYMYMTXXSBJM-UHFFFAOYSA-N

>  <Molecular Formula>
C10H7NO2S

>  <Monoisotopic Mass>
205.019749

>  <Druglikeness>
1.7408

$$$$
Compound 137
Actelion Java MolfileCreator 1.0

 19 21  0  0  0  0  0  0  0  0999 V2000
    0.0000   -0.0000   -0.0000 Cl  0  0  0  0  0  0  0  0  0  0  0  0
   -1.2986    0.7556   -0.0000 C   0  0  0  0  0  0  0  0  0  0  0  0
   -1.3104    2.2549   -0.0000 C   0  0  0  0  0  0  0  0  0  0  0  0
   -2.5972    0.0236   -0.0000 C   0  0  0  0  0  0  0  0  0  0  0  0
   -2.6208    3.0104   -0.0000 N   0  0  0  0  0  0  0  0  0  0  0  0
   -3.8958    0.7910   -0.0000 C   0  0  0  0  0  0  0  0  0  0  0  0
   -3.9194    2.2785   -0.0000 C   0  0  0  0  0  0  0  0  0  0  0  0
   -5.1945    0.0590   -0.0000 O   0  0  0  0  0  0  0  0  0  0  0  0
   -6.4931    0.8146   -0.0000 C   0  0  0  0  0  0  0  0  0  0  0  0
   -7.7917    0.0826   -0.0000 O   0  0  0  0  0  0  0  0  0  0  0  0
   -6.5049    2.3139   -0.0000 C   0  0  0  0  0  0  0  0  0  0  0  0
   -7.8035    3.0694   -0.0000 C   0  0  0  0  0  0  0  0  0  0  0  0
   -5.2299    3.0694   -0.0000 C   0  0  0  0  0  0  0  0  0  0  0  0
   -9.2438    2.6208   -0.0000 N   0  0  0  0  0  0  0  0  0  0  0  0
   -7.8153    4.5806   -0.0000 C   0  0  0  0  0  0  0  0  0  0  0  0
   -5.2417    4.5688   -0.0000 C   0  0  0  0  0  0  0  0  0  0  0  0
  -10.1410    3.8486   -0.0000 C   0  0  0  0  0  0  0  0  0  0  0  0
   -6.5403    5.3361   -0.0000 C   0  0  0  0  0  0  0  0  0  0  0  0
   -9.2556    5.0528   -0.0000 C   0  0  0  0  0  0  0  0  0  0  0  0
  1  2  1  0  0  0  0
  2  3  2  0  0  0  0
  2  4  1  0  0  0  0
  3  5  1  0  0  0  0
  4  6  2  0  0  0  0
  5  7  2  0  0  0  0
  6  8  1  0  0  0  0
  8  9  1  0  0  0  0
  9 10  2  0  0  0  0
  9 11  1  0  0  0  0
 11 12  2  0  0  0  0
 11 13  1  0  0  0  0
 12 14  1  0  0  0  0
 12 15  1  0  0  0  0
 13 16  2  0  0  0  0
 14 17  1  0  0  0  0
 15 18  2  0  0  0  0
 15 19  1  0  0  0  0
  6  7  1  0  0  0  0
 16 18  1  0  0  0  0
 17 19  2  0  0  0  0
M  END
>  <MolRegNo>
493035

>  <m>
=

>  <Value>
80

>  <Unit>
nM

>  <Type>
IC50

>  <Ligand Efficiency>


>  <Binding Efficiency>


>  <Surface Efficiency>


>  <Assay Index>
341535

>  <Assay Category>


>  <Assay Organism>
SARS coronavirus

>  <Target ID>
100499

>  <Target Name>
SARS coronavirus

>  <Target Organism>
SARS coronavirus

>  <Target Description>
Target is a complete organism

>  <Sequence Accession>


>  <Reference>
Bioorg. Med. Chem. Lett. 18 (20), 5684-5688 (2008)

>  <Pubmed ID>
18796354

>  <DOI>
10.1016/j.bmcl.2008.08.082

>  <InChI-Key>
FDPMNGSSFLFBSI-UHFFFAOYSA-N

>  <Molecular Formula>
C14H9N2O2Cl

>  <Monoisotopic Mass>
272.035255

>  <Druglikeness>
-0.46366

$$$$
Compound 138
Actelion Java MolfileCreator 1.0

 20 22  0  0  0  0  0  0  0  0999 V2000
    0.0000   -0.0000   -0.0000 O   0  0  0  0  0  0  0  0  0  0  0  0
    0.2970   -1.2128   -0.0000 C   0  0  0  0  0  0  0  0  0  0  0  0
    1.7449   -1.7944   -0.0000 C   0  0  0  0  0  0  0  0  0  0  0  0
   -0.7301   -2.4008   -0.0000 C   0  0  0  0  0  0  0  0  0  0  0  0
    1.6211   -3.3537   -0.0000 C   0  0  0  0  0  0  0  0  0  0  0  0
    3.0690   -0.9529   -0.0000 C   0  0  0  0  0  0  0  0  0  0  0  0
   -2.0048   -2.3018   -0.0000 O   0  0  0  0  0  0  0  0  0  0  0  0
    0.0990   -3.7002   -0.0000 C   0  0  0  0  0  0  0  0  0  0  0  0
    4.1704   -1.5345   -0.0000 O   0  0  0  0  0  0  0  0  0  0  0  0
   -0.3960   -5.1852   -0.0000 N   0  0  0  0  0  0  0  0  0  0  0  0
   -1.9058   -5.6554   -0.0000 C   0  0  0  0  0  0  0  0  0  0  0  0
    0.5074   -6.4227   -0.0000 C   0  0  0  0  0  0  0  0  0  0  0  0
   -3.2794   -4.8387   -0.0000 C   0  0  0  0  0  0  0  0  0  0  0  0
   -1.9182   -7.2147   -0.0000 C   0  0  0  0  0  0  0  0  0  0  0  0
   -0.4208   -7.6974   -0.0000 N   0  0  0  0  0  0  0  0  0  0  0  0
   -4.6654   -5.6307   -0.0000 C   0  0  0  0  0  0  0  0  0  0  0  0
   -3.2918   -3.5640   -0.0000 C   0  0  0  0  0  0  0  0  0  0  0  0
   -3.2918   -8.0067   -0.0000 C   0  0  0  0  0  0  0  0  0  0  0  0
   -4.6778   -7.1900   -0.0000 N   0  0  0  0  0  0  0  0  0  0  0  0
   -3.3042   -9.2566   -0.0000 N   0  0  0  0  0  0  0  0  0  0  0  0
  2  1  1  6  0  0  0
  2  3  1  0  0  0  0
  2  4  1  0  0  0  0
  3  5  2  0  0  0  0
  3  6  1  0  0  0  0
  4  7  1  6  0  0  0
  4  8  1  0  0  0  0
  6  9  1  0  0  0  0
  8 10  1  1  0  0  0
 10 11  1  0  0  0  0
 10 12  1  0  0  0  0
 11 13  2  0  0  0  0
 11 14  1  0  0  0  0
 12 15  2  0  0  0  0
 13 16  1  0  0  0  0
 13 17  1  0  0  0  0
 14 18  2  0  0  0  0
 16 19  2  0  0  0  0
 18 20  1  0  0  0  0
  5  8  1  0  0  0  0
 14 15  1  0  0  0  0
 18 19  1  0  0  0  0
M  END
>  <MolRegNo>
1957400

>  <m>


>  <Value>
0

>  <Unit>


>  <Type>
Activity

>  <Ligand Efficiency>


>  <Binding Efficiency>


>  <Surface Efficiency>


>  <Assay Index>
956765

>  <Assay Category>


>  <Assay Organism>
SARS coronavirus

>  <Target ID>
100499

>  <Target Name>
SARS coronavirus

>  <Target Organism>
SARS coronavirus

>  <Target Description>
Target is a complete organism

>  <Sequence Accession>


>  <Reference>
Bioorg. Med. Chem. 23 (17), 5496-5501 (2015)

>  <Pubmed ID>
26260336

>  <DOI>
10.1016/j.bmc.2015.07.039

>  <InChI-Key>
FDWQUSMWTNQFLG-AXTRIDKLSA-N

>  <Molecular Formula>
C13H16N4O3

>  <Monoisotopic Mass>
276.122241

>  <Druglikeness>
1.7466

$$$$
Compound 139
Actelion Java MolfileCreator 1.0

 21 23  0  0  0  0  0  0  0  0999 V2000
    0.0000   -0.0000   -0.0000 O   0  0  0  0  0  0  0  0  0  0  0  0
    0.7219    1.3136   -0.0000 C   0  0  0  0  0  0  0  0  0  0  0  0
    2.2012    1.3373   -0.0000 C   0  0  0  0  0  0  0  0  0  0  0  0
   -0.0473    2.6036   -0.0000 C   0  0  0  0  0  0  0  0  0  0  0  0
    2.9468    0.0592   -0.0000 O   0  0  0  0  0  0  0  0  0  0  0  0
    2.9231    2.6509   -0.0000 C   0  0  0  0  0  0  0  0  0  0  0  0
    0.6746    3.9172   -0.0000 C   0  0  0  0  0  0  0  0  0  0  0  0
   -1.5503    2.5799   -0.0000 C   0  0  0  0  0  0  0  0  0  0  0  0
    2.1539    3.9527   -0.0000 C   0  0  0  0  0  0  0  0  0  0  0  0
    4.4024    2.6746   -0.0000 C   0  0  0  0  0  0  0  0  0  0  0  0
   -0.1183    5.2190   -0.0000 C   0  0  0  0  0  0  0  0  0  0  0  0
   -2.3314    3.8817   -0.0000 C   0  0  0  0  0  0  0  0  0  0  0  0
   -2.2841    1.2781   -0.0000 C   0  0  0  0  0  0  0  0  0  0  0  0
    5.1480    1.3965   -0.0000 C   0  0  0  0  0  0  0  0  0  0  0  0
    5.1243    3.9882   -0.0000 C   0  0  0  0  0  0  0  0  0  0  0  0
   -1.6213    5.1953   -0.0000 C   0  0  0  0  0  0  0  0  0  0  0  0
   -3.8344    3.8699   -0.0000 C   0  0  0  0  0  0  0  0  0  0  0  0
   -3.7989    1.2781   -0.0000 C   0  0  0  0  0  0  0  0  0  0  0  0
   -4.5799    2.5799   -0.0000 C   0  0  0  0  0  0  0  0  0  0  0  0
   -5.3492    3.8935   -0.0000 C   0  0  0  0  0  0  0  0  0  0  0  0
   -3.8580    5.3847   -0.0000 C   0  0  0  0  0  0  0  0  0  0  0  0
  1  2  2  0  0  0  0
  2  3  1  0  0  0  0
  2  4  1  0  0  0  0
  3  5  2  0  0  0  0
  3  6  1  0  0  0  0
  4  7  2  0  0  0  0
  4  8  1  0  0  0  0
  6  9  2  0  0  0  0
  6 10  1  0  0  0  0
  7 11  1  0  0  0  0
  8 12  2  0  0  0  0
  8 13  1  0  0  0  0
 10 14  1  0  0  0  0
 10 15  1  0  0  0  0
 11 16  2  0  0  0  0
 12 17  1  0  0  0  0
 13 18  1  0  0  0  0
 17 19  1  0  0  0  0
 17 20  1  0  0  0  0
 17 21  1  0  0  0  0
  7  9  1  0  0  0  0
 12 16  1  0  0  0  0
 18 19  1  0  0  0  0
M  END
>  <MolRegNo>
69059

>  <m>
=

>  <Value>
78900

>  <Unit>
nM

>  <Type>
IC50

>  <Ligand Efficiency>
0.27

>  <Binding Efficiency>
14.53

>  <Surface Efficiency>
12.02

>  <Assay Index>
678310

>  <Assay Category>


>  <Assay Organism>
SARS coronavirus

>  <Target ID>
20012

>  <Target Name>
SARS coronavirus 3C-like proteinase

>  <Target Organism>
SARS coronavirus

>  <Target Description>
Target is a single protein chain

>  <Sequence Accession>
P0C6U8

>  <Reference>
Bioorg. Med. Chem. 20 (19), 5928-5935 (2012)

>  <Pubmed ID>
22884354

>  <DOI>
10.1016/j.bmc.2012.07.038

>  <InChI-Key>
FEFAIBOZOKSLJR-UHFFFAOYSA-N

>  <Molecular Formula>
C19H22O2

>  <Monoisotopic Mass>
282.161980

>  <Druglikeness>
-7.7738

$$$$
Compound 140
Actelion Java MolfileCreator 1.0

 21 23  0  0  0  0  0  0  0  0999 V2000
    0.0000   -0.0000   -0.0000 O   0  0  0  0  0  0  0  0  0  0  0  0
    0.7219    1.3136   -0.0000 C   0  0  0  0  0  0  0  0  0  0  0  0
    2.2012    1.3373   -0.0000 C   0  0  0  0  0  0  0  0  0  0  0  0
   -0.0473    2.6036   -0.0000 C   0  0  0  0  0  0  0  0  0  0  0  0
    2.9468    0.0592   -0.0000 O   0  0  0  0  0  0  0  0  0  0  0  0
    2.9231    2.6509   -0.0000 C   0  0  0  0  0  0  0  0  0  0  0  0
    0.6746    3.9172   -0.0000 C   0  0  0  0  0  0  0  0  0  0  0  0
   -1.5503    2.5799   -0.0000 C   0  0  0  0  0  0  0  0  0  0  0  0
    2.1539    3.9527   -0.0000 C   0  0  0  0  0  0  0  0  0  0  0  0
    4.4024    2.6746   -0.0000 C   0  0  0  0  0  0  0  0  0  0  0  0
   -0.1183    5.2190   -0.0000 C   0  0  0  0  0  0  0  0  0  0  0  0
   -2.3314    3.8817   -0.0000 C   0  0  0  0  0  0  0  0  0  0  0  0
   -2.2841    1.2781   -0.0000 C   0  0  0  0  0  0  0  0  0  0  0  0
    5.1480    1.3965   -0.0000 C   0  0  0  0  0  0  0  0  0  0  0  0
    5.1243    3.9882   -0.0000 C   0  0  0  0  0  0  0  0  0  0  0  0
   -1.6213    5.1953   -0.0000 C   0  0  0  0  0  0  0  0  0  0  0  0
   -3.8344    3.8699   -0.0000 C   0  0  0  0  0  0  0  0  0  0  0  0
   -3.7989    1.2781   -0.0000 C   0  0  0  0  0  0  0  0  0  0  0  0
   -4.5799    2.5799   -0.0000 C   0  0  0  0  0  0  0  0  0  0  0  0
   -5.3492    3.8935   -0.0000 C   0  0  0  0  0  0  0  0  0  0  0  0
   -3.8580    5.3847   -0.0000 C   0  0  0  0  0  0  0  0  0  0  0  0
  1  2  2  0  0  0  0
  2  3  1  0  0  0  0
  2  4  1  0  0  0  0
  3  5  2  0  0  0  0
  3  6  1  0  0  0  0
  4  7  2  0  0  0  0
  4  8  1  0  0  0  0
  6  9  2  0  0  0  0
  6 10  1  0  0  0  0
  7 11  1  0  0  0  0
  8 12  2  0  0  0  0
  8 13  1  0  0  0  0
 10 14  1  0  0  0  0
 10 15  1  0  0  0  0
 11 16  2  0  0  0  0
 12 17  1  0  0  0  0
 13 18  1  0  0  0  0
 17 19  1  0  0  0  0
 17 20  1  0  0  0  0
 17 21  1  0  0  0  0
  7  9  1  0  0  0  0
 12 16  1  0  0  0  0
 18 19  1  0  0  0  0
M  END
>  <MolRegNo>
69059

>  <m>
=

>  <Value>
60200

>  <Unit>
nM

>  <Type>
IC50

>  <Ligand Efficiency>
0.27

>  <Binding Efficiency>
14.95

>  <Surface Efficiency>
12.36

>  <Assay Index>
678193

>  <Assay Category>


>  <Assay Organism>
SARS coronavirus

>  <Target ID>
20012

>  <Target Name>
SARS coronavirus 3C-like proteinase

>  <Target Organism>
SARS coronavirus

>  <Target Description>
Target is a single protein chain

>  <Sequence Accession>
P0C6U8

>  <Reference>
Bioorg. Med. Chem. 20 (19), 5928-5935 (2012)

>  <Pubmed ID>
22884354

>  <DOI>
10.1016/j.bmc.2012.07.038

>  <InChI-Key>
FEFAIBOZOKSLJR-UHFFFAOYSA-N

>  <Molecular Formula>
C19H22O2

>  <Monoisotopic Mass>
282.161980

>  <Druglikeness>
-7.7738

$$$$
Compound 141
Actelion Java MolfileCreator 1.0

 21 23  0  0  0  0  0  0  0  0999 V2000
    0.0000   -0.0000   -0.0000 O   0  0  0  0  0  0  0  0  0  0  0  0
    0.7219    1.3136   -0.0000 C   0  0  0  0  0  0  0  0  0  0  0  0
    2.2012    1.3373   -0.0000 C   0  0  0  0  0  0  0  0  0  0  0  0
   -0.0473    2.6036   -0.0000 C   0  0  0  0  0  0  0  0  0  0  0  0
    2.9468    0.0592   -0.0000 O   0  0  0  0  0  0  0  0  0  0  0  0
    2.9231    2.6509   -0.0000 C   0  0  0  0  0  0  0  0  0  0  0  0
    0.6746    3.9172   -0.0000 C   0  0  0  0  0  0  0  0  0  0  0  0
   -1.5503    2.5799   -0.0000 C   0  0  0  0  0  0  0  0  0  0  0  0
    2.1539    3.9527   -0.0000 C   0  0  0  0  0  0  0  0  0  0  0  0
    4.4024    2.6746   -0.0000 C   0  0  0  0  0  0  0  0  0  0  0  0
   -0.1183    5.2190   -0.0000 C   0  0  0  0  0  0  0  0  0  0  0  0
   -2.3314    3.8817   -0.0000 C   0  0  0  0  0  0  0  0  0  0  0  0
   -2.2841    1.2781   -0.0000 C   0  0  0  0  0  0  0  0  0  0  0  0
    5.1480    1.3965   -0.0000 C   0  0  0  0  0  0  0  0  0  0  0  0
    5.1243    3.9882   -0.0000 C   0  0  0  0  0  0  0  0  0  0  0  0
   -1.6213    5.1953   -0.0000 C   0  0  0  0  0  0  0  0  0  0  0  0
   -3.8344    3.8699   -0.0000 C   0  0  0  0  0  0  0  0  0  0  0  0
   -3.7989    1.2781   -0.0000 C   0  0  0  0  0  0  0  0  0  0  0  0
   -4.5799    2.5799   -0.0000 C   0  0  0  0  0  0  0  0  0  0  0  0
   -5.3492    3.8935   -0.0000 C   0  0  0  0  0  0  0  0  0  0  0  0
   -3.8580    5.3847   -0.0000 C   0  0  0  0  0  0  0  0  0  0  0  0
  1  2  2  0  0  0  0
  2  3  1  0  0  0  0
  2  4  1  0  0  0  0
  3  5  2  0  0  0  0
  3  6  1  0  0  0  0
  4  7  2  0  0  0  0
  4  8  1  0  0  0  0
  6  9  2  0  0  0  0
  6 10  1  0  0  0  0
  7 11  1  0  0  0  0
  8 12  2  0  0  0  0
  8 13  1  0  0  0  0
 10 14  1  0  0  0  0
 10 15  1  0  0  0  0
 11 16  2  0  0  0  0
 12 17  1  0  0  0  0
 13 18  1  0  0  0  0
 17 19  1  0  0  0  0
 17 20  1  0  0  0  0
 17 21  1  0  0  0  0
  7  9  1  0  0  0  0
 12 16  1  0  0  0  0
 18 19  1  0  0  0  0
M  END
>  <MolRegNo>
69059

>  <m>
=

>  <Value>
30000

>  <Unit>
nM

>  <Type>
IC50

>  <Ligand Efficiency>
0.29

>  <Binding Efficiency>
16.02

>  <Surface Efficiency>
13.25

>  <Assay Index>
678190

>  <Assay Category>


>  <Assay Organism>
SARS coronavirus

>  <Target ID>
20012

>  <Target Name>
SARS coronavirus 3C-like proteinase

>  <Target Organism>
SARS coronavirus

>  <Target Description>
Target is a single protein chain

>  <Sequence Accession>
P0C6U8

>  <Reference>
Bioorg. Med. Chem. 20 (19), 5928-5935 (2012)

>  <Pubmed ID>
22884354

>  <DOI>
10.1016/j.bmc.2012.07.038

>  <InChI-Key>
FEFAIBOZOKSLJR-UHFFFAOYSA-N

>  <Molecular Formula>
C19H22O2

>  <Monoisotopic Mass>
282.161980

>  <Druglikeness>
-7.7738

$$$$
Compound 142
Actelion Java MolfileCreator 1.0

 21 23  0  0  0  0  0  0  0  0999 V2000
    0.0000   -0.0000   -0.0000 O   0  0  0  0  0  0  0  0  0  0  0  0
    0.7219    1.3136   -0.0000 C   0  0  0  0  0  0  0  0  0  0  0  0
    2.2012    1.3373   -0.0000 C   0  0  0  0  0  0  0  0  0  0  0  0
   -0.0473    2.6036   -0.0000 C   0  0  0  0  0  0  0  0  0  0  0  0
    2.9468    0.0592   -0.0000 O   0  0  0  0  0  0  0  0  0  0  0  0
    2.9231    2.6509   -0.0000 C   0  0  0  0  0  0  0  0  0  0  0  0
    0.6746    3.9172   -0.0000 C   0  0  0  0  0  0  0  0  0  0  0  0
   -1.5503    2.5799   -0.0000 C   0  0  0  0  0  0  0  0  0  0  0  0
    2.1539    3.9527   -0.0000 C   0  0  0  0  0  0  0  0  0  0  0  0
    4.4024    2.6746   -0.0000 C   0  0  0  0  0  0  0  0  0  0  0  0
   -0.1183    5.2190   -0.0000 C   0  0  0  0  0  0  0  0  0  0  0  0
   -2.3314    3.8817   -0.0000 C   0  0  0  0  0  0  0  0  0  0  0  0
   -2.2841    1.2781   -0.0000 C   0  0  0  0  0  0  0  0  0  0  0  0
    5.1480    1.3965   -0.0000 C   0  0  0  0  0  0  0  0  0  0  0  0
    5.1243    3.9882   -0.0000 C   0  0  0  0  0  0  0  0  0  0  0  0
   -1.6213    5.1953   -0.0000 C   0  0  0  0  0  0  0  0  0  0  0  0
   -3.8344    3.8699   -0.0000 C   0  0  0  0  0  0  0  0  0  0  0  0
   -3.7989    1.2781   -0.0000 C   0  0  0  0  0  0  0  0  0  0  0  0
   -4.5799    2.5799   -0.0000 C   0  0  0  0  0  0  0  0  0  0  0  0
   -5.3492    3.8935   -0.0000 C   0  0  0  0  0  0  0  0  0  0  0  0
   -3.8580    5.3847   -0.0000 C   0  0  0  0  0  0  0  0  0  0  0  0
  1  2  2  0  0  0  0
  2  3  1  0  0  0  0
  2  4  1  0  0  0  0
  3  5  2  0  0  0  0
  3  6  1  0  0  0  0
  4  7  2  0  0  0  0
  4  8  1  0  0  0  0
  6  9  2  0  0  0  0
  6 10  1  0  0  0  0
  7 11  1  0  0  0  0
  8 12  2  0  0  0  0
  8 13  1  0  0  0  0
 10 14  1  0  0  0  0
 10 15  1  0  0  0  0
 11 16  2  0  0  0  0
 12 17  1  0  0  0  0
 13 18  1  0  0  0  0
 17 19  1  0  0  0  0
 17 20  1  0  0  0  0
 17 21  1  0  0  0  0
  7  9  1  0  0  0  0
 12 16  1  0  0  0  0
 18 19  1  0  0  0  0
M  END
>  <MolRegNo>
69059

>  <m>
=

>  <Value>
21100

>  <Unit>
nM

>  <Type>
IC50

>  <Ligand Efficiency>
0.30

>  <Binding Efficiency>
16.56

>  <Surface Efficiency>
13.70

>  <Assay Index>
678191

>  <Assay Category>


>  <Assay Organism>
SARS coronavirus

>  <Target ID>
20012

>  <Target Name>
SARS coronavirus 3C-like proteinase

>  <Target Organism>
SARS coronavirus

>  <Target Description>
Target is a single protein chain

>  <Sequence Accession>
P0C6U8

>  <Reference>
Bioorg. Med. Chem. 20 (19), 5928-5935 (2012)

>  <Pubmed ID>
22884354

>  <DOI>
10.1016/j.bmc.2012.07.038

>  <InChI-Key>
FEFAIBOZOKSLJR-UHFFFAOYSA-N

>  <Molecular Formula>
C19H22O2

>  <Monoisotopic Mass>
282.161980

>  <Druglikeness>
-7.7738

$$$$
Compound 143
Actelion Java MolfileCreator 1.0

 21 23  0  0  0  0  0  0  0  0999 V2000
    0.0000   -0.0000   -0.0000 O   0  0  0  0  0  0  0  0  0  0  0  0
    0.7219    1.3136   -0.0000 C   0  0  0  0  0  0  0  0  0  0  0  0
    2.2012    1.3373   -0.0000 C   0  0  0  0  0  0  0  0  0  0  0  0
   -0.0473    2.6036   -0.0000 C   0  0  0  0  0  0  0  0  0  0  0  0
    2.9468    0.0592   -0.0000 O   0  0  0  0  0  0  0  0  0  0  0  0
    2.9231    2.6509   -0.0000 C   0  0  0  0  0  0  0  0  0  0  0  0
    0.6746    3.9172   -0.0000 C   0  0  0  0  0  0  0  0  0  0  0  0
   -1.5503    2.5799   -0.0000 C   0  0  0  0  0  0  0  0  0  0  0  0
    2.1539    3.9527   -0.0000 C   0  0  0  0  0  0  0  0  0  0  0  0
    4.4024    2.6746   -0.0000 C   0  0  0  0  0  0  0  0  0  0  0  0
   -0.1183    5.2190   -0.0000 C   0  0  0  0  0  0  0  0  0  0  0  0
   -2.3314    3.8817   -0.0000 C   0  0  0  0  0  0  0  0  0  0  0  0
   -2.2841    1.2781   -0.0000 C   0  0  0  0  0  0  0  0  0  0  0  0
    5.1480    1.3965   -0.0000 C   0  0  0  0  0  0  0  0  0  0  0  0
    5.1243    3.9882   -0.0000 C   0  0  0  0  0  0  0  0  0  0  0  0
   -1.6213    5.1953   -0.0000 C   0  0  0  0  0  0  0  0  0  0  0  0
   -3.8344    3.8699   -0.0000 C   0  0  0  0  0  0  0  0  0  0  0  0
   -3.7989    1.2781   -0.0000 C   0  0  0  0  0  0  0  0  0  0  0  0
   -4.5799    2.5799   -0.0000 C   0  0  0  0  0  0  0  0  0  0  0  0
   -5.3492    3.8935   -0.0000 C   0  0  0  0  0  0  0  0  0  0  0  0
   -3.8580    5.3847   -0.0000 C   0  0  0  0  0  0  0  0  0  0  0  0
  1  2  2  0  0  0  0
  2  3  1  0  0  0  0
  2  4  1  0  0  0  0
  3  5  2  0  0  0  0
  3  6  1  0  0  0  0
  4  7  2  0  0  0  0
  4  8  1  0  0  0  0
  6  9  2  0  0  0  0
  6 10  1  0  0  0  0
  7 11  1  0  0  0  0
  8 12  2  0  0  0  0
  8 13  1  0  0  0  0
 10 14  1  0  0  0  0
 10 15  1  0  0  0  0
 11 16  2  0  0  0  0
 12 17  1  0  0  0  0
 13 18  1  0  0  0  0
 17 19  1  0  0  0  0
 17 20  1  0  0  0  0
 17 21  1  0  0  0  0
  7  9  1  0  0  0  0
 12 16  1  0  0  0  0
 18 19  1  0  0  0  0
M  END
>  <MolRegNo>
69059

>  <m>


>  <Value>
0

>  <Unit>


>  <Type>
Inhibition

>  <Ligand Efficiency>


>  <Binding Efficiency>


>  <Surface Efficiency>


>  <Assay Index>
678307

>  <Assay Category>


>  <Assay Organism>
SARS coronavirus

>  <Target ID>
20012

>  <Target Name>
SARS coronavirus 3C-like proteinase

>  <Target Organism>
SARS coronavirus

>  <Target Description>
Target is a single protein chain

>  <Sequence Accession>
P0C6U8

>  <Reference>
Bioorg. Med. Chem. 20 (19), 5928-5935 (2012)

>  <Pubmed ID>
22884354

>  <DOI>
10.1016/j.bmc.2012.07.038

>  <InChI-Key>
FEFAIBOZOKSLJR-UHFFFAOYSA-N

>  <Molecular Formula>
C19H22O2

>  <Monoisotopic Mass>
282.161980

>  <Druglikeness>
-7.7738

$$$$
Compound 144
Actelion Java MolfileCreator 1.0

 21 23  0  0  0  0  0  0  0  0999 V2000
    0.0000   -0.0000   -0.0000 O   0  0  0  0  0  0  0  0  0  0  0  0
    0.7219    1.3136   -0.0000 C   0  0  0  0  0  0  0  0  0  0  0  0
    2.2012    1.3373   -0.0000 C   0  0  0  0  0  0  0  0  0  0  0  0
   -0.0473    2.6036   -0.0000 C   0  0  0  0  0  0  0  0  0  0  0  0
    2.9468    0.0592   -0.0000 O   0  0  0  0  0  0  0  0  0  0  0  0
    2.9231    2.6509   -0.0000 C   0  0  0  0  0  0  0  0  0  0  0  0
    0.6746    3.9172   -0.0000 C   0  0  0  0  0  0  0  0  0  0  0  0
   -1.5503    2.5799   -0.0000 C   0  0  0  0  0  0  0  0  0  0  0  0
    2.1539    3.9527   -0.0000 C   0  0  0  0  0  0  0  0  0  0  0  0
    4.4024    2.6746   -0.0000 C   0  0  0  0  0  0  0  0  0  0  0  0
   -0.1183    5.2190   -0.0000 C   0  0  0  0  0  0  0  0  0  0  0  0
   -2.3314    3.8817   -0.0000 C   0  0  0  0  0  0  0  0  0  0  0  0
   -2.2841    1.2781   -0.0000 C   0  0  0  0  0  0  0  0  0  0  0  0
    5.1480    1.3965   -0.0000 C   0  0  0  0  0  0  0  0  0  0  0  0
    5.1243    3.9882   -0.0000 C   0  0  0  0  0  0  0  0  0  0  0  0
   -1.6213    5.1953   -0.0000 C   0  0  0  0  0  0  0  0  0  0  0  0
   -3.8344    3.8699   -0.0000 C   0  0  0  0  0  0  0  0  0  0  0  0
   -3.7989    1.2781   -0.0000 C   0  0  0  0  0  0  0  0  0  0  0  0
   -4.5799    2.5799   -0.0000 C   0  0  0  0  0  0  0  0  0  0  0  0
   -5.3492    3.8935   -0.0000 C   0  0  0  0  0  0  0  0  0  0  0  0
   -3.8580    5.3847   -0.0000 C   0  0  0  0  0  0  0  0  0  0  0  0
  1  2  2  0  0  0  0
  2  3  1  0  0  0  0
  2  4  1  0  0  0  0
  3  5  2  0  0  0  0
  3  6  1  0  0  0  0
  4  7  2  0  0  0  0
  4  8  1  0  0  0  0
  6  9  2  0  0  0  0
  6 10  1  0  0  0  0
  7 11  1  0  0  0  0
  8 12  2  0  0  0  0
  8 13  1  0  0  0  0
 10 14  1  0  0  0  0
 10 15  1  0  0  0  0
 11 16  2  0  0  0  0
 12 17  1  0  0  0  0
 13 18  1  0  0  0  0
 17 19  1  0  0  0  0
 17 20  1  0  0  0  0
 17 21  1  0  0  0  0
  7  9  1  0  0  0  0
 12 16  1  0  0  0  0
 18 19  1  0  0  0  0
M  END
>  <MolRegNo>
69059

>  <m>


>  <Value>
0

>  <Unit>


>  <Type>
Inhibition

>  <Ligand Efficiency>


>  <Binding Efficiency>


>  <Surface Efficiency>


>  <Assay Index>
678308

>  <Assay Category>


>  <Assay Organism>
SARS coronavirus

>  <Target ID>
20012

>  <Target Name>
SARS coronavirus 3C-like proteinase

>  <Target Organism>
SARS coronavirus

>  <Target Description>
Target is a single protein chain

>  <Sequence Accession>
P0C6U8

>  <Reference>
Bioorg. Med. Chem. 20 (19), 5928-5935 (2012)

>  <Pubmed ID>
22884354

>  <DOI>
10.1016/j.bmc.2012.07.038

>  <InChI-Key>
FEFAIBOZOKSLJR-UHFFFAOYSA-N

>  <Molecular Formula>
C19H22O2

>  <Monoisotopic Mass>
282.161980

>  <Druglikeness>
-7.7738

$$$$
Compound 145
Actelion Java MolfileCreator 1.0

 21 23  0  0  0  0  0  0  0  0999 V2000
    0.0000   -0.0000   -0.0000 O   0  0  0  0  0  0  0  0  0  0  0  0
    0.7219    1.3136   -0.0000 C   0  0  0  0  0  0  0  0  0  0  0  0
    2.2012    1.3373   -0.0000 C   0  0  0  0  0  0  0  0  0  0  0  0
   -0.0473    2.6036   -0.0000 C   0  0  0  0  0  0  0  0  0  0  0  0
    2.9468    0.0592   -0.0000 O   0  0  0  0  0  0  0  0  0  0  0  0
    2.9231    2.6509   -0.0000 C   0  0  0  0  0  0  0  0  0  0  0  0
    0.6746    3.9172   -0.0000 C   0  0  0  0  0  0  0  0  0  0  0  0
   -1.5503    2.5799   -0.0000 C   0  0  0  0  0  0  0  0  0  0  0  0
    2.1539    3.9527   -0.0000 C   0  0  0  0  0  0  0  0  0  0  0  0
    4.4024    2.6746   -0.0000 C   0  0  0  0  0  0  0  0  0  0  0  0
   -0.1183    5.2190   -0.0000 C   0  0  0  0  0  0  0  0  0  0  0  0
   -2.3314    3.8817   -0.0000 C   0  0  0  0  0  0  0  0  0  0  0  0
   -2.2841    1.2781   -0.0000 C   0  0  0  0  0  0  0  0  0  0  0  0
    5.1480    1.3965   -0.0000 C   0  0  0  0  0  0  0  0  0  0  0  0
    5.1243    3.9882   -0.0000 C   0  0  0  0  0  0  0  0  0  0  0  0
   -1.6213    5.1953   -0.0000 C   0  0  0  0  0  0  0  0  0  0  0  0
   -3.8344    3.8699   -0.0000 C   0  0  0  0  0  0  0  0  0  0  0  0
   -3.7989    1.2781   -0.0000 C   0  0  0  0  0  0  0  0  0  0  0  0
   -4.5799    2.5799   -0.0000 C   0  0  0  0  0  0  0  0  0  0  0  0
   -5.3492    3.8935   -0.0000 C   0  0  0  0  0  0  0  0  0  0  0  0
   -3.8580    5.3847   -0.0000 C   0  0  0  0  0  0  0  0  0  0  0  0
  1  2  2  0  0  0  0
  2  3  1  0  0  0  0
  2  4  1  0  0  0  0
  3  5  2  0  0  0  0
  3  6  1  0  0  0  0
  4  7  2  0  0  0  0
  4  8  1  0  0  0  0
  6  9  2  0  0  0  0
  6 10  1  0  0  0  0
  7 11  1  0  0  0  0
  8 12  2  0  0  0  0
  8 13  1  0  0  0  0
 10 14  1  0  0  0  0
 10 15  1  0  0  0  0
 11 16  2  0  0  0  0
 12 17  1  0  0  0  0
 13 18  1  0  0  0  0
 17 19  1  0  0  0  0
 17 20  1  0  0  0  0
 17 21  1  0  0  0  0
  7  9  1  0  0  0  0
 12 16  1  0  0  0  0
 18 19  1  0  0  0  0
M  END
>  <MolRegNo>
69059

>  <m>


>  <Value>
0

>  <Unit>


>  <Type>
Inhibition

>  <Ligand Efficiency>


>  <Binding Efficiency>


>  <Surface Efficiency>


>  <Assay Index>
678309

>  <Assay Category>


>  <Assay Organism>
SARS coronavirus

>  <Target ID>
20012

>  <Target Name>
SARS coronavirus 3C-like proteinase

>  <Target Organism>
SARS coronavirus

>  <Target Description>
Target is a single protein chain

>  <Sequence Accession>
P0C6U8

>  <Reference>
Bioorg. Med. Chem. 20 (19), 5928-5935 (2012)

>  <Pubmed ID>
22884354

>  <DOI>
10.1016/j.bmc.2012.07.038

>  <InChI-Key>
FEFAIBOZOKSLJR-UHFFFAOYSA-N

>  <Molecular Formula>
C19H22O2

>  <Monoisotopic Mass>
282.161980

>  <Druglikeness>
-7.7738

$$$$
Compound 146
Actelion Java MolfileCreator 1.0

 21 23  0  0  0  0  0  0  0  0999 V2000
    0.0000   -0.0000   -0.0000 O   0  0  0  0  0  0  0  0  0  0  0  0
    0.7219    1.3136   -0.0000 C   0  0  0  0  0  0  0  0  0  0  0  0
    2.2012    1.3373   -0.0000 C   0  0  0  0  0  0  0  0  0  0  0  0
   -0.0473    2.6036   -0.0000 C   0  0  0  0  0  0  0  0  0  0  0  0
    2.9468    0.0592   -0.0000 O   0  0  0  0  0  0  0  0  0  0  0  0
    2.9231    2.6509   -0.0000 C   0  0  0  0  0  0  0  0  0  0  0  0
    0.6746    3.9172   -0.0000 C   0  0  0  0  0  0  0  0  0  0  0  0
   -1.5503    2.5799   -0.0000 C   0  0  0  0  0  0  0  0  0  0  0  0
    2.1539    3.9527   -0.0000 C   0  0  0  0  0  0  0  0  0  0  0  0
    4.4024    2.6746   -0.0000 C   0  0  0  0  0  0  0  0  0  0  0  0
   -0.1183    5.2190   -0.0000 C   0  0  0  0  0  0  0  0  0  0  0  0
   -2.3314    3.8817   -0.0000 C   0  0  0  0  0  0  0  0  0  0  0  0
   -2.2841    1.2781   -0.0000 C   0  0  0  0  0  0  0  0  0  0  0  0
    5.1480    1.3965   -0.0000 C   0  0  0  0  0  0  0  0  0  0  0  0
    5.1243    3.9882   -0.0000 C   0  0  0  0  0  0  0  0  0  0  0  0
   -1.6213    5.1953   -0.0000 C   0  0  0  0  0  0  0  0  0  0  0  0
   -3.8344    3.8699   -0.0000 C   0  0  0  0  0  0  0  0  0  0  0  0
   -3.7989    1.2781   -0.0000 C   0  0  0  0  0  0  0  0  0  0  0  0
   -4.5799    2.5799   -0.0000 C   0  0  0  0  0  0  0  0  0  0  0  0
   -5.3492    3.8935   -0.0000 C   0  0  0  0  0  0  0  0  0  0  0  0
   -3.8580    5.3847   -0.0000 C   0  0  0  0  0  0  0  0  0  0  0  0
  1  2  2  0  0  0  0
  2  3  1  0  0  0  0
  2  4  1  0  0  0  0
  3  5  2  0  0  0  0
  3  6  1  0  0  0  0
  4  7  2  0  0  0  0
  4  8  1  0  0  0  0
  6  9  2  0  0  0  0
  6 10  1  0  0  0  0
  7 11  1  0  0  0  0
  8 12  2  0  0  0  0
  8 13  1  0  0  0  0
 10 14  1  0  0  0  0
 10 15  1  0  0  0  0
 11 16  2  0  0  0  0
 12 17  1  0  0  0  0
 13 18  1  0  0  0  0
 17 19  1  0  0  0  0
 17 20  1  0  0  0  0
 17 21  1  0  0  0  0
  7  9  1  0  0  0  0
 12 16  1  0  0  0  0
 18 19  1  0  0  0  0
M  END
>  <MolRegNo>
69059

>  <m>


>  <Value>
0

>  <Unit>


>  <Type>
Inhibition

>  <Ligand Efficiency>


>  <Binding Efficiency>


>  <Surface Efficiency>


>  <Assay Index>
678312

>  <Assay Category>


>  <Assay Organism>
SARS coronavirus

>  <Target ID>
20012

>  <Target Name>
SARS coronavirus 3C-like proteinase

>  <Target Organism>
SARS coronavirus

>  <Target Description>
Target is a single protein chain

>  <Sequence Accession>
P0C6U8

>  <Reference>
Bioorg. Med. Chem. 20 (19), 5928-5935 (2012)

>  <Pubmed ID>
22884354

>  <DOI>
10.1016/j.bmc.2012.07.038

>  <InChI-Key>
FEFAIBOZOKSLJR-UHFFFAOYSA-N

>  <Molecular Formula>
C19H22O2

>  <Monoisotopic Mass>
282.161980

>  <Druglikeness>
-7.7738

$$$$
Compound 147
Actelion Java MolfileCreator 1.0

 21 23  0  0  0  0  0  0  0  0999 V2000
    0.0000   -0.0000   -0.0000 O   0  0  0  0  0  0  0  0  0  0  0  0
    0.7219    1.3136   -0.0000 C   0  0  0  0  0  0  0  0  0  0  0  0
    2.2012    1.3373   -0.0000 C   0  0  0  0  0  0  0  0  0  0  0  0
   -0.0473    2.6036   -0.0000 C   0  0  0  0  0  0  0  0  0  0  0  0
    2.9468    0.0592   -0.0000 O   0  0  0  0  0  0  0  0  0  0  0  0
    2.9231    2.6509   -0.0000 C   0  0  0  0  0  0  0  0  0  0  0  0
    0.6746    3.9172   -0.0000 C   0  0  0  0  0  0  0  0  0  0  0  0
   -1.5503    2.5799   -0.0000 C   0  0  0  0  0  0  0  0  0  0  0  0
    2.1539    3.9527   -0.0000 C   0  0  0  0  0  0  0  0  0  0  0  0
    4.4024    2.6746   -0.0000 C   0  0  0  0  0  0  0  0  0  0  0  0
   -0.1183    5.2190   -0.0000 C   0  0  0  0  0  0  0  0  0  0  0  0
   -2.3314    3.8817   -0.0000 C   0  0  0  0  0  0  0  0  0  0  0  0
   -2.2841    1.2781   -0.0000 C   0  0  0  0  0  0  0  0  0  0  0  0
    5.1480    1.3965   -0.0000 C   0  0  0  0  0  0  0  0  0  0  0  0
    5.1243    3.9882   -0.0000 C   0  0  0  0  0  0  0  0  0  0  0  0
   -1.6213    5.1953   -0.0000 C   0  0  0  0  0  0  0  0  0  0  0  0
   -3.8344    3.8699   -0.0000 C   0  0  0  0  0  0  0  0  0  0  0  0
   -3.7989    1.2781   -0.0000 C   0  0  0  0  0  0  0  0  0  0  0  0
   -4.5799    2.5799   -0.0000 C   0  0  0  0  0  0  0  0  0  0  0  0
   -5.3492    3.8935   -0.0000 C   0  0  0  0  0  0  0  0  0  0  0  0
   -3.8580    5.3847   -0.0000 C   0  0  0  0  0  0  0  0  0  0  0  0
  1  2  2  0  0  0  0
  2  3  1  0  0  0  0
  2  4  1  0  0  0  0
  3  5  2  0  0  0  0
  3  6  1  0  0  0  0
  4  7  2  0  0  0  0
  4  8  1  0  0  0  0
  6  9  2  0  0  0  0
  6 10  1  0  0  0  0
  7 11  1  0  0  0  0
  8 12  2  0  0  0  0
  8 13  1  0  0  0  0
 10 14  1  0  0  0  0
 10 15  1  0  0  0  0
 11 16  2  0  0  0  0
 12 17  1  0  0  0  0
 13 18  1  0  0  0  0
 17 19  1  0  0  0  0
 17 20  1  0  0  0  0
 17 21  1  0  0  0  0
  7  9  1  0  0  0  0
 12 16  1  0  0  0  0
 18 19  1  0  0  0  0
M  END
>  <MolRegNo>
69059

>  <m>


>  <Value>
0

>  <Unit>


>  <Type>
Inhibition

>  <Ligand Efficiency>


>  <Binding Efficiency>


>  <Surface Efficiency>


>  <Assay Index>
678314

>  <Assay Category>


>  <Assay Organism>
SARS coronavirus

>  <Target ID>
20012

>  <Target Name>
SARS coronavirus 3C-like proteinase

>  <Target Organism>
SARS coronavirus

>  <Target Description>
Target is a single protein chain

>  <Sequence Accession>
P0C6U8

>  <Reference>
Bioorg. Med. Chem. 20 (19), 5928-5935 (2012)

>  <Pubmed ID>
22884354

>  <DOI>
10.1016/j.bmc.2012.07.038

>  <InChI-Key>
FEFAIBOZOKSLJR-UHFFFAOYSA-N

>  <Molecular Formula>
C19H22O2

>  <Monoisotopic Mass>
282.161980

>  <Druglikeness>
-7.7738

$$$$
Compound 148
Actelion Java MolfileCreator 1.0

 21 23  0  0  0  0  0  0  0  0999 V2000
    0.0000   -0.0000   -0.0000 O   0  0  0  0  0  0  0  0  0  0  0  0
    0.7219    1.3136   -0.0000 C   0  0  0  0  0  0  0  0  0  0  0  0
    2.2012    1.3373   -0.0000 C   0  0  0  0  0  0  0  0  0  0  0  0
   -0.0473    2.6036   -0.0000 C   0  0  0  0  0  0  0  0  0  0  0  0
    2.9468    0.0592   -0.0000 O   0  0  0  0  0  0  0  0  0  0  0  0
    2.9231    2.6509   -0.0000 C   0  0  0  0  0  0  0  0  0  0  0  0
    0.6746    3.9172   -0.0000 C   0  0  0  0  0  0  0  0  0  0  0  0
   -1.5503    2.5799   -0.0000 C   0  0  0  0  0  0  0  0  0  0  0  0
    2.1539    3.9527   -0.0000 C   0  0  0  0  0  0  0  0  0  0  0  0
    4.4024    2.6746   -0.0000 C   0  0  0  0  0  0  0  0  0  0  0  0
   -0.1183    5.2190   -0.0000 C   0  0  0  0  0  0  0  0  0  0  0  0
   -2.3314    3.8817   -0.0000 C   0  0  0  0  0  0  0  0  0  0  0  0
   -2.2841    1.2781   -0.0000 C   0  0  0  0  0  0  0  0  0  0  0  0
    5.1480    1.3965   -0.0000 C   0  0  0  0  0  0  0  0  0  0  0  0
    5.1243    3.9882   -0.0000 C   0  0  0  0  0  0  0  0  0  0  0  0
   -1.6213    5.1953   -0.0000 C   0  0  0  0  0  0  0  0  0  0  0  0
   -3.8344    3.8699   -0.0000 C   0  0  0  0  0  0  0  0  0  0  0  0
   -3.7989    1.2781   -0.0000 C   0  0  0  0  0  0  0  0  0  0  0  0
   -4.5799    2.5799   -0.0000 C   0  0  0  0  0  0  0  0  0  0  0  0
   -5.3492    3.8935   -0.0000 C   0  0  0  0  0  0  0  0  0  0  0  0
   -3.8580    5.3847   -0.0000 C   0  0  0  0  0  0  0  0  0  0  0  0
  1  2  2  0  0  0  0
  2  3  1  0  0  0  0
  2  4  1  0  0  0  0
  3  5  2  0  0  0  0
  3  6  1  0  0  0  0
  4  7  2  0  0  0  0
  4  8  1  0  0  0  0
  6  9  2  0  0  0  0
  6 10  1  0  0  0  0
  7 11  1  0  0  0  0
  8 12  2  0  0  0  0
  8 13  1  0  0  0  0
 10 14  1  0  0  0  0
 10 15  1  0  0  0  0
 11 16  2  0  0  0  0
 12 17  1  0  0  0  0
 13 18  1  0  0  0  0
 17 19  1  0  0  0  0
 17 20  1  0  0  0  0
 17 21  1  0  0  0  0
  7  9  1  0  0  0  0
 12 16  1  0  0  0  0
 18 19  1  0  0  0  0
M  END
>  <MolRegNo>
69059

>  <m>


>  <Value>
0

>  <Unit>


>  <Type>
Inhibition

>  <Ligand Efficiency>


>  <Binding Efficiency>


>  <Surface Efficiency>


>  <Assay Index>
678191

>  <Assay Category>


>  <Assay Organism>
SARS coronavirus

>  <Target ID>
20012

>  <Target Name>
SARS coronavirus 3C-like proteinase

>  <Target Organism>
SARS coronavirus

>  <Target Description>
Target is a single protein chain

>  <Sequence Accession>
P0C6U8

>  <Reference>
Bioorg. Med. Chem. 20 (19), 5928-5935 (2012)

>  <Pubmed ID>
22884354

>  <DOI>
10.1016/j.bmc.2012.07.038

>  <InChI-Key>
FEFAIBOZOKSLJR-UHFFFAOYSA-N

>  <Molecular Formula>
C19H22O2

>  <Monoisotopic Mass>
282.161980

>  <Druglikeness>
-7.7738

$$$$
Compound 149
Actelion Java MolfileCreator 1.0

 21 23  0  0  0  0  0  0  0  0999 V2000
    0.0000   -0.0000   -0.0000 O   0  0  0  0  0  0  0  0  0  0  0  0
    0.7219    1.3136   -0.0000 C   0  0  0  0  0  0  0  0  0  0  0  0
    2.2012    1.3373   -0.0000 C   0  0  0  0  0  0  0  0  0  0  0  0
   -0.0473    2.6036   -0.0000 C   0  0  0  0  0  0  0  0  0  0  0  0
    2.9468    0.0592   -0.0000 O   0  0  0  0  0  0  0  0  0  0  0  0
    2.9231    2.6509   -0.0000 C   0  0  0  0  0  0  0  0  0  0  0  0
    0.6746    3.9172   -0.0000 C   0  0  0  0  0  0  0  0  0  0  0  0
   -1.5503    2.5799   -0.0000 C   0  0  0  0  0  0  0  0  0  0  0  0
    2.1539    3.9527   -0.0000 C   0  0  0  0  0  0  0  0  0  0  0  0
    4.4024    2.6746   -0.0000 C   0  0  0  0  0  0  0  0  0  0  0  0
   -0.1183    5.2190   -0.0000 C   0  0  0  0  0  0  0  0  0  0  0  0
   -2.3314    3.8817   -0.0000 C   0  0  0  0  0  0  0  0  0  0  0  0
   -2.2841    1.2781   -0.0000 C   0  0  0  0  0  0  0  0  0  0  0  0
    5.1480    1.3965   -0.0000 C   0  0  0  0  0  0  0  0  0  0  0  0
    5.1243    3.9882   -0.0000 C   0  0  0  0  0  0  0  0  0  0  0  0
   -1.6213    5.1953   -0.0000 C   0  0  0  0  0  0  0  0  0  0  0  0
   -3.8344    3.8699   -0.0000 C   0  0  0  0  0  0  0  0  0  0  0  0
   -3.7989    1.2781   -0.0000 C   0  0  0  0  0  0  0  0  0  0  0  0
   -4.5799    2.5799   -0.0000 C   0  0  0  0  0  0  0  0  0  0  0  0
   -5.3492    3.8935   -0.0000 C   0  0  0  0  0  0  0  0  0  0  0  0
   -3.8580    5.3847   -0.0000 C   0  0  0  0  0  0  0  0  0  0  0  0
  1  2  2  0  0  0  0
  2  3  1  0  0  0  0
  2  4  1  0  0  0  0
  3  5  2  0  0  0  0
  3  6  1  0  0  0  0
  4  7  2  0  0  0  0
  4  8  1  0  0  0  0
  6  9  2  0  0  0  0
  6 10  1  0  0  0  0
  7 11  1  0  0  0  0
  8 12  2  0  0  0  0
  8 13  1  0  0  0  0
 10 14  1  0  0  0  0
 10 15  1  0  0  0  0
 11 16  2  0  0  0  0
 12 17  1  0  0  0  0
 13 18  1  0  0  0  0
 17 19  1  0  0  0  0
 17 20  1  0  0  0  0
 17 21  1  0  0  0  0
  7  9  1  0  0  0  0
 12 16  1  0  0  0  0
 18 19  1  0  0  0  0
M  END
>  <MolRegNo>
69059

>  <m>
=

>  <Value>
21500

>  <Unit>
nM

>  <Type>
Ki

>  <Ligand Efficiency>
0.30

>  <Binding Efficiency>
16.53

>  <Surface Efficiency>
13.67

>  <Assay Index>
678192

>  <Assay Category>


>  <Assay Organism>
SARS coronavirus

>  <Target ID>
20012

>  <Target Name>
SARS coronavirus 3C-like proteinase

>  <Target Organism>
SARS coronavirus

>  <Target Description>
Target is a single protein chain

>  <Sequence Accession>
P0C6U8

>  <Reference>
Bioorg. Med. Chem. 20 (19), 5928-5935 (2012)

>  <Pubmed ID>
22884354

>  <DOI>
10.1016/j.bmc.2012.07.038

>  <InChI-Key>
FEFAIBOZOKSLJR-UHFFFAOYSA-N

>  <Molecular Formula>
C19H22O2

>  <Monoisotopic Mass>
282.161980

>  <Druglikeness>
-7.7738

$$$$
Compound 150
Actelion Java MolfileCreator 1.0

 24 27  0  0  0  0  0  0  0  0999 V2000
    0.0000   -0.0000   -0.0000 S   0  0  0  0  0  0  0  0  0  0  0  0
   -0.0118   -1.4847   -0.0000 C   0  0  0  0  0  0  0  0  0  0  0  0
   -1.4258    0.4595   -0.0000 C   0  0  0  0  0  0  0  0  0  0  0  0
   -1.4375   -1.9442   -0.0000 C   0  0  0  0  0  0  0  0  0  0  0  0
    1.0840   -2.4745   -0.0000 C   0  0  0  0  0  0  0  0  0  0  0  0
   -1.9089    1.8971   -0.0000 C   0  0  0  0  0  0  0  0  0  0  0  0
   -2.3095   -0.7306   -0.0000 C   0  0  0  0  0  0  0  0  0  0  0  0
   -1.7557   -3.3935   -0.0000 C   0  0  0  0  0  0  0  0  0  0  0  0
    0.7777   -3.9120   -0.0000 C   0  0  0  0  0  0  0  0  0  0  0  0
   -0.9191    3.0165   -0.0000 O   0  0  0  0  0  0  0  0  0  0  0  0
   -3.3818    2.2152   -0.0000 C   0  0  0  0  0  0  0  0  0  0  0  0
   -0.6599   -4.3833   -0.0000 C   0  0  0  0  0  0  0  0  0  0  0  0
   -3.8649    3.6528   -0.0000 N   0  0  0  0  0  0  0  0  0  0  0  0
   -2.9929    4.8782   -0.0000 C   0  0  0  0  0  0  0  0  0  0  0  0
   -5.3024    4.1359   -0.0000 C   0  0  0  0  0  0  0  0  0  0  0  0
   -1.5082    4.8900   -0.0000 O   0  0  0  0  0  0  0  0  0  0  0  0
   -3.8884    6.1037   -0.0000 C   0  0  0  0  0  0  0  0  0  0  0  0
   -5.3142    5.6441   -0.0000 C   0  0  0  0  0  0  0  0  0  0  0  0
   -6.6103    3.3818   -0.0000 C   0  0  0  0  0  0  0  0  0  0  0  0
   -3.4525    7.5412   -0.0000 O   0  0  0  0  0  0  0  0  0  0  0  0
   -6.6221    6.3982   -0.0000 C   0  0  0  0  0  0  0  0  0  0  0  0
   -7.9183    4.1359   -0.0000 C   0  0  0  0  0  0  0  0  0  0  0  0
   -7.9300    5.6441   -0.0000 C   0  0  0  0  0  0  0  0  0  0  0  0
   -9.2380    6.3982   -0.0000 N   0  0  0  0  0  0  0  0  0  0  0  0
  1  2  1  0  0  0  0
  1  3  1  0  0  0  0
  2  4  2  0  0  0  0
  2  5  1  0  0  0  0
  3  6  1  0  0  0  0
  3  7  2  0  0  0  0
  4  8  1  0  0  0  0
  5  9  2  0  0  0  0
  6 10  2  0  0  0  0
  6 11  1  0  0  0  0
  8 12  2  0  0  0  0
 11 13  1  0  0  0  0
 13 14  1  0  0  0  0
 13 15  1  0  0  0  0
 14 16  2  0  0  0  0
 14 17  1  0  0  0  0
 15 18  2  0  0  0  0
 15 19  1  0  0  0  0
 17 20  2  0  0  0  0
 18 21  1  0  0  0  0
 19 22  2  0  0  0  0
 21 23  2  0  0  0  0
 23 24  1  0  0  0  0
  4  7  1  0  0  0  0
  9 12  1  0  0  0  0
 17 18  1  0  0  0  0
 22 23  1  0  0  0  0
M  END
>  <MolRegNo>
317404

>  <m>
=

>  <Value>
40

>  <Unit>
%

>  <Type>
Inhibition

>  <Ligand Efficiency>


>  <Binding Efficiency>


>  <Surface Efficiency>


>  <Assay Index>
240686

>  <Assay Category>


>  <Assay Organism>
SARS coronavirus

>  <Target ID>
20012

>  <Target Name>
SARS coronavirus 3C-like proteinase

>  <Target Organism>
SARS coronavirus

>  <Target Description>
Target is a single protein chain

>  <Sequence Accession>
P0C6U8

>  <Reference>
Bioorg. Med. Chem. Lett. 15 (12), 3058-3062 (2005)

>  <Pubmed ID>
15896959

>  <DOI>
10.1016/j.bmcl.2005.04.027

>  <InChI-Key>
FHIBSCCRSJDXDO-UHFFFAOYSA-N

>  <Molecular Formula>
C18H12N2O3S

>  <Monoisotopic Mass>
336.056863

>  <Druglikeness>
1.7942

$$$$
Compound 151
Actelion Java MolfileCreator 1.0

 24 26  0  0  0  0  0  0  0  0999 V2000
    0.0000   -0.0000   -0.0000 O   0  0  0  0  0  0  0  0  0  0  0  0
    1.4213    0.4738   -0.0000 C   0  0  0  0  0  0  0  0  0  0  0  0
    1.8714    1.9188   -0.0000 O   0  0  0  0  0  0  0  0  0  0  0  0
    2.6295   -0.4027   -0.0000 C   0  0  0  0  0  0  0  0  0  0  0  0
    3.3638    1.9306   -0.0000 C   0  0  0  0  0  0  0  0  0  0  0  0
    3.8257    0.4856   -0.0000 C   0  0  0  0  0  0  0  0  0  0  0  0
    2.6176   -1.8951   -0.0000 C   0  0  0  0  0  0  0  0  0  0  0  0
    3.9087   -2.6295   -0.0000 C   0  0  0  0  0  0  0  0  0  0  0  0
    3.8968   -4.1219   -0.0000 C   0  0  0  0  0  0  0  0  0  0  0  0
    5.1760   -4.8799   -0.0000 C   0  0  0  0  0  0  0  0  0  0  0  0
    2.5821   -4.8680   -0.0000 C   0  0  0  0  0  0  0  0  0  0  0  0
    6.4670   -4.1219   -0.0000 C   0  0  0  0  0  0  0  0  0  0  0  0
    5.1523   -6.3723   -0.0000 C   0  0  0  0  0  0  0  0  0  0  0  0
    2.5584   -6.3604   -0.0000 C   0  0  0  0  0  0  0  0  0  0  0  0
    1.2674   -4.0982   -0.0000 C   0  0  0  0  0  0  0  0  0  0  0  0
    2.5584   -3.3520   -0.0000 C   0  0  0  0  0  0  0  0  0  0  0  0
    3.8376   -7.0948   -0.0000 C   0  0  0  0  0  0  0  0  0  0  0  0
    1.2555   -7.0948   -0.0000 C   0  0  0  0  0  0  0  0  0  0  0  0
   -0.0474   -4.8444   -0.0000 C   0  0  0  0  0  0  0  0  0  0  0  0
    0.1658   -8.1489   -0.0000 C   0  0  0  0  0  0  0  0  0  0  0  0
   -0.0592   -6.3368   -0.0000 C   0  0  0  0  0  0  0  0  0  0  0  0
    1.6227   -8.5398   -0.0000 C   0  0  0  0  0  0  0  0  0  0  0  0
   -1.2910   -7.7344   -0.0000 O   0  0  0  0  0  0  0  0  0  0  0  0
    0.5330   -9.5940   -0.0000 O   0  0  0  0  0  0  0  0  0  0  0  0
  1  2  2  0  0  0  0
  2  3  1  0  0  0  0
  2  4  1  0  0  0  0
  3  5  1  0  0  0  0
  4  6  2  0  0  0  0
  4  7  1  0  0  0  0
  7  8  1  0  0  0  0
  9  8  1  1  0  0  0
  9 10  1  0  0  0  0
  9 11  1  0  0  0  0
 10 12  2  0  0  0  0
 10 13  1  0  0  0  0
 11 14  1  0  0  0  0
 11 15  1  0  0  0  0
 11 16  1  1  0  0  0
 13 17  1  0  0  0  0
 14 18  1  0  0  0  0
 15 19  1  0  0  0  0
 18 20  1  0  0  0  0
 18 21  1  0  0  0  0
 18 22  1  6  0  0  0
 20 23  2  0  0  0  0
 20 24  1  0  0  0  0
  5  6  1  0  0  0  0
 14 17  1  1  0  0  0
 19 21  1  0  0  0  0
M  END
>  <MolRegNo>
463370

>  <m>
=

>  <Value>
4710

>  <Unit>
nM

>  <Type>
EC50

>  <Ligand Efficiency>


>  <Binding Efficiency>


>  <Surface Efficiency>


>  <Assay Index>
294026

>  <Assay Category>


>  <Assay Organism>
SARS coronavirus

>  <Target ID>
100499

>  <Target Name>
SARS coronavirus

>  <Target Organism>
SARS coronavirus

>  <Target Description>
Target is a complete organism

>  <Sequence Accession>


>  <Reference>
J. Med. Chem. 50 (17), 4087-4095 (2007)

>  <Pubmed ID>
17663539

>  <DOI>
10.1021/jm070295s

>  <InChI-Key>
FHQSDRHZGCMBKG-FEHORTKBSA-N

>  <Molecular Formula>
C20H28O4

>  <Monoisotopic Mass>
332.198760

>  <Druglikeness>
-5.0903

$$$$
Compound 152
Actelion Java MolfileCreator 1.0

 24 26  0  0  0  0  0  0  0  0999 V2000
    0.0000   -0.0000   -0.0000 O   0  0  0  0  0  0  0  0  0  0  0  0
    1.4213    0.4738   -0.0000 C   0  0  0  0  0  0  0  0  0  0  0  0
    1.8714    1.9188   -0.0000 O   0  0  0  0  0  0  0  0  0  0  0  0
    2.6295   -0.4027   -0.0000 C   0  0  0  0  0  0  0  0  0  0  0  0
    3.3638    1.9306   -0.0000 C   0  0  0  0  0  0  0  0  0  0  0  0
    3.8257    0.4856   -0.0000 C   0  0  0  0  0  0  0  0  0  0  0  0
    2.6176   -1.8951   -0.0000 C   0  0  0  0  0  0  0  0  0  0  0  0
    3.9087   -2.6295   -0.0000 C   0  0  0  0  0  0  0  0  0  0  0  0
    3.8968   -4.1219   -0.0000 C   0  0  0  0  0  0  0  0  0  0  0  0
    5.1760   -4.8799   -0.0000 C   0  0  0  0  0  0  0  0  0  0  0  0
    2.5821   -4.8680   -0.0000 C   0  0  0  0  0  0  0  0  0  0  0  0
    6.4670   -4.1219   -0.0000 C   0  0  0  0  0  0  0  0  0  0  0  0
    5.1523   -6.3723   -0.0000 C   0  0  0  0  0  0  0  0  0  0  0  0
    2.5584   -6.3604   -0.0000 C   0  0  0  0  0  0  0  0  0  0  0  0
    1.2674   -4.0982   -0.0000 C   0  0  0  0  0  0  0  0  0  0  0  0
    2.5584   -3.3520   -0.0000 C   0  0  0  0  0  0  0  0  0  0  0  0
    3.8376   -7.0948   -0.0000 C   0  0  0  0  0  0  0  0  0  0  0  0
    1.2555   -7.0948   -0.0000 C   0  0  0  0  0  0  0  0  0  0  0  0
   -0.0474   -4.8444   -0.0000 C   0  0  0  0  0  0  0  0  0  0  0  0
    0.1658   -8.1489   -0.0000 C   0  0  0  0  0  0  0  0  0  0  0  0
   -0.0592   -6.3368   -0.0000 C   0  0  0  0  0  0  0  0  0  0  0  0
    1.6227   -8.5398   -0.0000 C   0  0  0  0  0  0  0  0  0  0  0  0
   -1.2910   -7.7344   -0.0000 O   0  0  0  0  0  0  0  0  0  0  0  0
    0.5330   -9.5940   -0.0000 O   0  0  0  0  0  0  0  0  0  0  0  0
  1  2  2  0  0  0  0
  2  3  1  0  0  0  0
  2  4  1  0  0  0  0
  3  5  1  0  0  0  0
  4  6  2  0  0  0  0
  4  7  1  0  0  0  0
  7  8  1  0  0  0  0
  9  8  1  1  0  0  0
  9 10  1  0  0  0  0
  9 11  1  0  0  0  0
 10 12  2  0  0  0  0
 10 13  1  0  0  0  0
 11 14  1  0  0  0  0
 11 15  1  0  0  0  0
 11 16  1  1  0  0  0
 13 17  1  0  0  0  0
 14 18  1  0  0  0  0
 15 19  1  0  0  0  0
 18 20  1  0  0  0  0
 18 21  1  0  0  0  0
 18 22  1  6  0  0  0
 20 23  2  0  0  0  0
 20 24  1  0  0  0  0
  5  6  1  0  0  0  0
 14 17  1  1  0  0  0
 19 21  1  0  0  0  0
M  END
>  <MolRegNo>
463370

>  <m>
<

>  <Value>
25

>  <Unit>
%

>  <Type>
Inhibition

>  <Ligand Efficiency>


>  <Binding Efficiency>


>  <Surface Efficiency>


>  <Assay Index>
294022

>  <Assay Category>


>  <Assay Organism>
SARS coronavirus

>  <Target ID>
100499

>  <Target Name>
SARS coronavirus

>  <Target Organism>
SARS coronavirus

>  <Target Description>
Target is a complete organism

>  <Sequence Accession>


>  <Reference>
J. Med. Chem. 50 (17), 4087-4095 (2007)

>  <Pubmed ID>
17663539

>  <DOI>
10.1021/jm070295s

>  <InChI-Key>
FHQSDRHZGCMBKG-FEHORTKBSA-N

>  <Molecular Formula>
C20H28O4

>  <Monoisotopic Mass>
332.198760

>  <Druglikeness>
-5.0903

$$$$
Compound 153
Actelion Java MolfileCreator 1.0

 24 26  0  0  0  0  0  0  0  0999 V2000
    0.0000   -0.0000   -0.0000 O   0  0  0  0  0  0  0  0  0  0  0  0
    1.4213    0.4738   -0.0000 C   0  0  0  0  0  0  0  0  0  0  0  0
    1.8714    1.9188   -0.0000 O   0  0  0  0  0  0  0  0  0  0  0  0
    2.6295   -0.4027   -0.0000 C   0  0  0  0  0  0  0  0  0  0  0  0
    3.3638    1.9306   -0.0000 C   0  0  0  0  0  0  0  0  0  0  0  0
    3.8257    0.4856   -0.0000 C   0  0  0  0  0  0  0  0  0  0  0  0
    2.6176   -1.8951   -0.0000 C   0  0  0  0  0  0  0  0  0  0  0  0
    3.9087   -2.6295   -0.0000 C   0  0  0  0  0  0  0  0  0  0  0  0
    3.8968   -4.1219   -0.0000 C   0  0  0  0  0  0  0  0  0  0  0  0
    5.1760   -4.8799   -0.0000 C   0  0  0  0  0  0  0  0  0  0  0  0
    2.5821   -4.8680   -0.0000 C   0  0  0  0  0  0  0  0  0  0  0  0
    6.4670   -4.1219   -0.0000 C   0  0  0  0  0  0  0  0  0  0  0  0
    5.1523   -6.3723   -0.0000 C   0  0  0  0  0  0  0  0  0  0  0  0
    2.5584   -6.3604   -0.0000 C   0  0  0  0  0  0  0  0  0  0  0  0
    1.2674   -4.0982   -0.0000 C   0  0  0  0  0  0  0  0  0  0  0  0
    2.5584   -3.3520   -0.0000 C   0  0  0  0  0  0  0  0  0  0  0  0
    3.8376   -7.0948   -0.0000 C   0  0  0  0  0  0  0  0  0  0  0  0
    1.2555   -7.0948   -0.0000 C   0  0  0  0  0  0  0  0  0  0  0  0
   -0.0474   -4.8444   -0.0000 C   0  0  0  0  0  0  0  0  0  0  0  0
    0.1658   -8.1489   -0.0000 C   0  0  0  0  0  0  0  0  0  0  0  0
   -0.0592   -6.3368   -0.0000 C   0  0  0  0  0  0  0  0  0  0  0  0
    1.6227   -8.5398   -0.0000 C   0  0  0  0  0  0  0  0  0  0  0  0
   -1.2910   -7.7344   -0.0000 O   0  0  0  0  0  0  0  0  0  0  0  0
    0.5330   -9.5940   -0.0000 O   0  0  0  0  0  0  0  0  0  0  0  0
  1  2  2  0  0  0  0
  2  3  1  0  0  0  0
  2  4  1  0  0  0  0
  3  5  1  0  0  0  0
  4  6  2  0  0  0  0
  4  7  1  0  0  0  0
  7  8  1  0  0  0  0
  9  8  1  1  0  0  0
  9 10  1  0  0  0  0
  9 11  1  0  0  0  0
 10 12  2  0  0  0  0
 10 13  1  0  0  0  0
 11 14  1  0  0  0  0
 11 15  1  0  0  0  0
 11 16  1  1  0  0  0
 13 17  1  0  0  0  0
 14 18  1  0  0  0  0
 15 19  1  0  0  0  0
 18 20  1  0  0  0  0
 18 21  1  0  0  0  0
 18 22  1  6  0  0  0
 20 23  2  0  0  0  0
 20 24  1  0  0  0  0
  5  6  1  0  0  0  0
 14 17  1  1  0  0  0
 19 21  1  0  0  0  0
M  END
>  <MolRegNo>
463370

>  <m>
<

>  <Value>
25

>  <Unit>
%

>  <Type>
Inhibition

>  <Ligand Efficiency>


>  <Binding Efficiency>


>  <Surface Efficiency>


>  <Assay Index>
294023

>  <Assay Category>


>  <Assay Organism>
SARS coronavirus

>  <Target ID>
100499

>  <Target Name>
SARS coronavirus

>  <Target Organism>
SARS coronavirus

>  <Target Description>
Target is a complete organism

>  <Sequence Accession>


>  <Reference>
J. Med. Chem. 50 (17), 4087-4095 (2007)

>  <Pubmed ID>
17663539

>  <DOI>
10.1021/jm070295s

>  <InChI-Key>
FHQSDRHZGCMBKG-FEHORTKBSA-N

>  <Molecular Formula>
C20H28O4

>  <Monoisotopic Mass>
332.198760

>  <Druglikeness>
-5.0903

$$$$
Compound 154
Actelion Java MolfileCreator 1.0

 24 26  0  0  0  0  0  0  0  0999 V2000
    0.0000   -0.0000   -0.0000 O   0  0  0  0  0  0  0  0  0  0  0  0
    1.4213    0.4738   -0.0000 C   0  0  0  0  0  0  0  0  0  0  0  0
    1.8714    1.9188   -0.0000 O   0  0  0  0  0  0  0  0  0  0  0  0
    2.6295   -0.4027   -0.0000 C   0  0  0  0  0  0  0  0  0  0  0  0
    3.3638    1.9306   -0.0000 C   0  0  0  0  0  0  0  0  0  0  0  0
    3.8257    0.4856   -0.0000 C   0  0  0  0  0  0  0  0  0  0  0  0
    2.6176   -1.8951   -0.0000 C   0  0  0  0  0  0  0  0  0  0  0  0
    3.9087   -2.6295   -0.0000 C   0  0  0  0  0  0  0  0  0  0  0  0
    3.8968   -4.1219   -0.0000 C   0  0  0  0  0  0  0  0  0  0  0  0
    5.1760   -4.8799   -0.0000 C   0  0  0  0  0  0  0  0  0  0  0  0
    2.5821   -4.8680   -0.0000 C   0  0  0  0  0  0  0  0  0  0  0  0
    6.4670   -4.1219   -0.0000 C   0  0  0  0  0  0  0  0  0  0  0  0
    5.1523   -6.3723   -0.0000 C   0  0  0  0  0  0  0  0  0  0  0  0
    2.5584   -6.3604   -0.0000 C   0  0  0  0  0  0  0  0  0  0  0  0
    1.2674   -4.0982   -0.0000 C   0  0  0  0  0  0  0  0  0  0  0  0
    2.5584   -3.3520   -0.0000 C   0  0  0  0  0  0  0  0  0  0  0  0
    3.8376   -7.0948   -0.0000 C   0  0  0  0  0  0  0  0  0  0  0  0
    1.2555   -7.0948   -0.0000 C   0  0  0  0  0  0  0  0  0  0  0  0
   -0.0474   -4.8444   -0.0000 C   0  0  0  0  0  0  0  0  0  0  0  0
    0.1658   -8.1489   -0.0000 C   0  0  0  0  0  0  0  0  0  0  0  0
   -0.0592   -6.3368   -0.0000 C   0  0  0  0  0  0  0  0  0  0  0  0
    1.6227   -8.5398   -0.0000 C   0  0  0  0  0  0  0  0  0  0  0  0
   -1.2910   -7.7344   -0.0000 O   0  0  0  0  0  0  0  0  0  0  0  0
    0.5330   -9.5940   -0.0000 O   0  0  0  0  0  0  0  0  0  0  0  0
  1  2  2  0  0  0  0
  2  3  1  0  0  0  0
  2  4  1  0  0  0  0
  3  5  1  0  0  0  0
  4  6  2  0  0  0  0
  4  7  1  0  0  0  0
  7  8  1  0  0  0  0
  9  8  1  1  0  0  0
  9 10  1  0  0  0  0
  9 11  1  0  0  0  0
 10 12  2  0  0  0  0
 10 13  1  0  0  0  0
 11 14  1  0  0  0  0
 11 15  1  0  0  0  0
 11 16  1  1  0  0  0
 13 17  1  0  0  0  0
 14 18  1  0  0  0  0
 15 19  1  0  0  0  0
 18 20  1  0  0  0  0
 18 21  1  0  0  0  0
 18 22  1  6  0  0  0
 20 23  2  0  0  0  0
 20 24  1  0  0  0  0
  5  6  1  0  0  0  0
 14 17  1  1  0  0  0
 19 21  1  0  0  0  0
M  END
>  <MolRegNo>
463370

>  <m>


>  <Value>
0

>  <Unit>


>  <Type>
Inhibition

>  <Ligand Efficiency>


>  <Binding Efficiency>


>  <Surface Efficiency>


>  <Assay Index>
294025

>  <Assay Category>


>  <Assay Organism>
SARS coronavirus

>  <Target ID>
100499

>  <Target Name>
SARS coronavirus

>  <Target Organism>
SARS coronavirus

>  <Target Description>
Target is a complete organism

>  <Sequence Accession>


>  <Reference>
J. Med. Chem. 50 (17), 4087-4095 (2007)

>  <Pubmed ID>
17663539

>  <DOI>
10.1021/jm070295s

>  <InChI-Key>
FHQSDRHZGCMBKG-FEHORTKBSA-N

>  <Molecular Formula>
C20H28O4

>  <Monoisotopic Mass>
332.198760

>  <Druglikeness>
-5.0903

$$$$
Compound 155
Actelion Java MolfileCreator 1.0

 24 26  0  0  0  0  0  0  0  0999 V2000
    0.0000   -0.0000   -0.0000 O   0  0  0  0  0  0  0  0  0  0  0  0
    1.4213    0.4738   -0.0000 C   0  0  0  0  0  0  0  0  0  0  0  0
    1.8714    1.9188   -0.0000 O   0  0  0  0  0  0  0  0  0  0  0  0
    2.6295   -0.4027   -0.0000 C   0  0  0  0  0  0  0  0  0  0  0  0
    3.3638    1.9306   -0.0000 C   0  0  0  0  0  0  0  0  0  0  0  0
    3.8257    0.4856   -0.0000 C   0  0  0  0  0  0  0  0  0  0  0  0
    2.6176   -1.8951   -0.0000 C   0  0  0  0  0  0  0  0  0  0  0  0
    3.9087   -2.6295   -0.0000 C   0  0  0  0  0  0  0  0  0  0  0  0
    3.8968   -4.1219   -0.0000 C   0  0  0  0  0  0  0  0  0  0  0  0
    5.1760   -4.8799   -0.0000 C   0  0  0  0  0  0  0  0  0  0  0  0
    2.5821   -4.8680   -0.0000 C   0  0  0  0  0  0  0  0  0  0  0  0
    6.4670   -4.1219   -0.0000 C   0  0  0  0  0  0  0  0  0  0  0  0
    5.1523   -6.3723   -0.0000 C   0  0  0  0  0  0  0  0  0  0  0  0
    2.5584   -6.3604   -0.0000 C   0  0  0  0  0  0  0  0  0  0  0  0
    1.2674   -4.0982   -0.0000 C   0  0  0  0  0  0  0  0  0  0  0  0
    2.5584   -3.3520   -0.0000 C   0  0  0  0  0  0  0  0  0  0  0  0
    3.8376   -7.0948   -0.0000 C   0  0  0  0  0  0  0  0  0  0  0  0
    1.2555   -7.0948   -0.0000 C   0  0  0  0  0  0  0  0  0  0  0  0
   -0.0474   -4.8444   -0.0000 C   0  0  0  0  0  0  0  0  0  0  0  0
    0.1658   -8.1489   -0.0000 C   0  0  0  0  0  0  0  0  0  0  0  0
   -0.0592   -6.3368   -0.0000 C   0  0  0  0  0  0  0  0  0  0  0  0
    1.6227   -8.5398   -0.0000 C   0  0  0  0  0  0  0  0  0  0  0  0
   -1.2910   -7.7344   -0.0000 O   0  0  0  0  0  0  0  0  0  0  0  0
    0.5330   -9.5940   -0.0000 O   0  0  0  0  0  0  0  0  0  0  0  0
  1  2  2  0  0  0  0
  2  3  1  0  0  0  0
  2  4  1  0  0  0  0
  3  5  1  0  0  0  0
  4  6  2  0  0  0  0
  4  7  1  0  0  0  0
  7  8  1  0  0  0  0
  9  8  1  1  0  0  0
  9 10  1  0  0  0  0
  9 11  1  0  0  0  0
 10 12  2  0  0  0  0
 10 13  1  0  0  0  0
 11 14  1  0  0  0  0
 11 15  1  0  0  0  0
 11 16  1  1  0  0  0
 13 17  1  0  0  0  0
 14 18  1  0  0  0  0
 15 19  1  0  0  0  0
 18 20  1  0  0  0  0
 18 21  1  0  0  0  0
 18 22  1  6  0  0  0
 20 23  2  0  0  0  0
 20 24  1  0  0  0  0
  5  6  1  0  0  0  0
 14 17  1  1  0  0  0
 19 21  1  0  0  0  0
M  END
>  <MolRegNo>
463370

>  <m>


>  <Value>
0

>  <Unit>


>  <Type>
Inhibition

>  <Ligand Efficiency>


>  <Binding Efficiency>


>  <Surface Efficiency>


>  <Assay Index>
294024

>  <Assay Category>


>  <Assay Organism>
SARS coronavirus

>  <Target ID>
100499

>  <Target Name>
SARS coronavirus

>  <Target Organism>
SARS coronavirus

>  <Target Description>
Target is a complete organism

>  <Sequence Accession>


>  <Reference>
J. Med. Chem. 50 (17), 4087-4095 (2007)

>  <Pubmed ID>
17663539

>  <DOI>
10.1021/jm070295s

>  <InChI-Key>
FHQSDRHZGCMBKG-FEHORTKBSA-N

>  <Molecular Formula>
C20H28O4

>  <Monoisotopic Mass>
332.198760

>  <Druglikeness>
-5.0903

$$$$
Compound 156
Actelion Java MolfileCreator 1.0

 15 16  0  0  0  0  0  0  0  0999 V2000
    0.0000   -0.0000   -0.0000 I   0  0  0  0  0  0  0  0  0  0  0  0
    1.2909   -0.7411   -0.0000 C   0  0  0  0  0  0  0  0  0  0  0  0
    2.5699    0.0239   -0.0000 C   0  0  0  0  0  0  0  0  0  0  0  0
    1.2790   -2.2352   -0.0000 C   0  0  0  0  0  0  0  0  0  0  0  0
    3.8728   -0.7052   -0.0000 C   0  0  0  0  0  0  0  0  0  0  0  0
    2.5699   -2.9763   -0.0000 C   0  0  0  0  0  0  0  0  0  0  0  0
    5.3072   -0.2271   -0.0000 C   0  0  0  0  0  0  0  0  0  0  0  0
    3.8609   -2.2113   -0.0000 C   0  0  0  0  0  0  0  0  0  0  0  0
    5.7614    1.2192   -0.0000 O   0  0  0  0  0  0  0  0  0  0  0  0
    6.1917   -1.4463   -0.0000 C   0  0  0  0  0  0  0  0  0  0  0  0
    5.2952   -2.6655   -0.0000 N   0  0  0  0  0  0  0  0  0  0  0  0
    7.6859   -1.4344   -0.0000 O   0  0  0  0  0  0  0  0  0  0  0  0
    5.7494   -4.0880   -0.0000 C   0  0  0  0  0  0  0  0  0  0  0  0
    4.7334   -5.1996   -0.0000 C   0  0  0  0  0  0  0  0  0  0  0  0
    5.1877   -6.6220   -0.0000 C   0  0  0  0  0  0  0  0  0  0  0  0
  1  2  1  0  0  0  0
  2  3  2  0  0  0  0
  2  4  1  0  0  0  0
  3  5  1  0  0  0  0
  4  6  2  0  0  0  0
  5  7  1  0  0  0  0
  5  8  2  0  0  0  0
  7  9  2  0  0  0  0
  7 10  1  0  0  0  0
  8 11  1  0  0  0  0
 10 12  2  0  0  0  0
 11 13  1  0  0  0  0
 13 14  1  0  0  0  0
 14 15  1  0  0  0  0
  6  8  1  0  0  0  0
 10 11  1  0  0  0  0
M  END
>  <MolRegNo>
348966

>  <m>
=

>  <Value>
25

>  <Unit>
%

>  <Type>
Inhibition

>  <Ligand Efficiency>


>  <Binding Efficiency>


>  <Surface Efficiency>


>  <Assay Index>
262887

>  <Assay Category>


>  <Assay Organism>
SARS coronavirus

>  <Target ID>
20012

>  <Target Name>
SARS coronavirus 3C-like proteinase

>  <Target Organism>
SARS coronavirus

>  <Target Description>
Target is a single protein chain

>  <Sequence Accession>
P0C6U8

>  <Reference>
J. Med. Chem. 49 (12), 3440-3443 (2006)

>  <Pubmed ID>
16759084

>  <DOI>
10.1021/jm0602357

>  <InChI-Key>
FHXKQEFQCDBMSD-UHFFFAOYSA-N

>  <Molecular Formula>
C11H10NO2I

>  <Monoisotopic Mass>
314.975627

>  <Druglikeness>
0.91192

$$$$
Compound 157
Actelion Java MolfileCreator 1.0

 26 29  0  0  0  0  0  0  0  0999 V2000
    0.0000   -0.0000   -0.0000 I   0  0  0  0  0  0  0  0  0  0  0  0
    1.2974   -0.7380   -0.0000 C   0  0  0  0  0  0  0  0  0  0  0  0
    2.5948    0.0238   -0.0000 C   0  0  0  0  0  0  0  0  0  0  0  0
    1.2855   -2.2377   -0.0000 C   0  0  0  0  0  0  0  0  0  0  0  0
    3.9041   -0.7142   -0.0000 C   0  0  0  0  0  0  0  0  0  0  0  0
    2.5829   -2.9757   -0.0000 C   0  0  0  0  0  0  0  0  0  0  0  0
    5.3205   -0.2262   -0.0000 C   0  0  0  0  0  0  0  0  0  0  0  0
    3.8922   -2.2139   -0.0000 C   0  0  0  0  0  0  0  0  0  0  0  0
    5.7847    1.2141   -0.0000 O   0  0  0  0  0  0  0  0  0  0  0  0
    6.2013   -1.4521   -0.0000 C   0  0  0  0  0  0  0  0  0  0  0  0
    5.3086   -2.6543   -0.0000 N   0  0  0  0  0  0  0  0  0  0  0  0
    7.7011   -1.4402   -0.0000 O   0  0  0  0  0  0  0  0  0  0  0  0
    5.7728   -4.0826   -0.0000 C   0  0  0  0  0  0  0  0  0  0  0  0
    7.2250   -4.3921   -0.0000 C   0  0  0  0  0  0  0  0  0  0  0  0
    8.3319   -3.3685   -0.0000 S   0  0  0  0  0  0  0  0  0  0  0  0
    7.8320   -5.7490   -0.0000 C   0  0  0  0  0  0  0  0  0  0  0  0
    9.6293   -4.1183   -0.0000 C   0  0  0  0  0  0  0  0  0  0  0  0
    9.3198   -5.5824   -0.0000 C   0  0  0  0  0  0  0  0  0  0  0  0
   11.0100   -3.4875   -0.0000 C   0  0  0  0  0  0  0  0  0  0  0  0
   11.1410   -1.9759   -0.0000 O   0  0  0  0  0  0  0  0  0  0  0  0
   12.2241   -4.3564   -0.0000 N   0  0  0  0  0  0  0  0  0  0  0  0
   13.5810   -3.7256   -0.0000 C   0  0  0  0  0  0  0  0  0  0  0  0
   12.0456   -5.8561   -0.0000 C   0  0  0  0  0  0  0  0  0  0  0  0
   14.7832   -4.6064   -0.0000 C   0  0  0  0  0  0  0  0  0  0  0  0
   13.2597   -6.7250   -0.0000 C   0  0  0  0  0  0  0  0  0  0  0  0
   14.6166   -6.1061   -0.0000 C   0  0  0  0  0  0  0  0  0  0  0  0
  1  2  1  0  0  0  0
  2  3  2  0  0  0  0
  2  4  1  0  0  0  0
  3  5  1  0  0  0  0
  4  6  2  0  0  0  0
  5  7  1  0  0  0  0
  5  8  2  0  0  0  0
  7  9  2  0  0  0  0
  7 10  1  0  0  0  0
  8 11  1  0  0  0  0
 10 12  2  0  0  0  0
 11 13  1  0  0  0  0
 13 14  1  0  0  0  0
 14 15  1  0  0  0  0
 14 16  2  0  0  0  0
 15 17  1  0  0  0  0
 16 18  1  0  0  0  0
 17 19  1  0  0  0  0
 19 20  2  0  0  0  0
 19 21  1  0  0  0  0
 21 22  1  0  0  0  0
 21 23  1  0  0  0  0
 22 24  1  0  0  0  0
 23 25  1  0  0  0  0
 24 26  1  0  0  0  0
  6  8  1  0  0  0  0
 10 11  1  0  0  0  0
 17 18  2  0  0  0  0
 25 26  1  0  0  0  0
M  END
>  <MolRegNo>
317209

>  <m>
=

>  <Value>
17500

>  <Unit>
nM

>  <Type>
IC50

>  <Ligand Efficiency>
0.25

>  <Binding Efficiency>
9.90

>  <Surface Efficiency>
8.25

>  <Assay Index>
238671

>  <Assay Category>


>  <Assay Organism>
SARS coronavirus

>  <Target ID>
20012

>  <Target Name>
SARS coronavirus 3C-like proteinase

>  <Target Organism>
SARS coronavirus

>  <Target Description>
Target is a single protein chain

>  <Sequence Accession>
P0C6U8

>  <Reference>
Bioorg. Med. Chem. Lett. 15 (12), 3058-3062 (2005)

>  <Pubmed ID>
15896959

>  <DOI>
10.1016/j.bmcl.2005.04.027

>  <InChI-Key>
FJXCZSNZFQISSC-UHFFFAOYSA-N

>  <Molecular Formula>
C19H17N2O3IS

>  <Monoisotopic Mass>
480.000461

>  <Druglikeness>
0.38828

$$$$
Compound 158
Actelion Java MolfileCreator 1.0

 17 18  0  0  1  0  0  0  0  0999 V2000
    0.0000   -0.0000   -0.0000 O   0  0  0  0  0  0  0  0  0  0  0  0
    0.0119   -1.4983   -0.0000 C   0  0  0  0  0  0  0  0  0  0  0  0
    1.3199   -2.2236   -0.0000 N   0  0  0  0  0  0  0  0  0  0  0  0
   -1.2842   -2.2474   -0.0000 N   0  0  0  0  0  0  0  0  0  0  0  0
    1.3199   -3.7219   -0.0000 C   0  0  0  0  0  0  0  0  0  0  0  0
   -1.2723   -3.7338   -0.0000 C   0  0  0  0  0  0  0  0  0  0  0  0
    2.6279   -4.4591   -0.0000 O   0  0  0  0  0  0  0  0  0  0  0  0
    0.0119   -4.4829   -0.0000 C   0  0  0  0  0  0  0  0  0  0  0  0
    0.0119   -5.9812   -0.0000 C   0  0  0  0  0  0  0  0  0  0  0  0
   -1.2129   -6.8611   -0.0000 C   0  0  0  0  0  0  0  0  0  0  0  0
    1.2367   -6.8373   -0.0000 C   0  0  0  0  0  0  0  0  0  0  0  0
   -0.7372   -8.2761   -0.0000 C   0  0  0  0  0  0  0  0  0  0  0  0
    2.6517   -6.3498   -0.0000 O   0  0  0  0  0  0  0  0  0  0  0  0
    0.7729   -8.2643   -0.0000 C   0  0  0  0  0  0  0  0  0  0  0  0
   -1.6291   -9.5009   -0.0000 C   0  0  0  0  0  0  0  0  0  0  0  0
    1.6529   -9.4652   -0.0000 O   0  0  0  0  0  0  0  0  0  0  0  0
   -3.1392   -9.3463   -0.0000 O   0  0  0  0  0  0  0  0  0  0  0  0
  1  2  2  0  0  0  0
  2  3  1  0  0  0  0
  2  4  1  0  0  0  0
  3  5  1  0  0  0  0
  4  6  1  0  0  0  0
  5  7  2  0  0  0  0
  5  8  1  0  0  0  0
  9  8  1  1  0  0  0
  9 10  1  0  0  0  0
  9 11  1  0  0  0  0
 10 12  2  0  0  0  0
 11 13  1  6  0  0  0
 11 14  1  0  0  0  0
 12 15  1  0  0  0  0
 14 16  1  6  0  0  0
 15 17  1  0  0  0  0
  6  8  2  0  0  0  0
 12 14  1  0  0  0  0
M  END
>  <MolRegNo>
376363

>  <m>
=

>  <Value>
49000

>  <Unit>
nM

>  <Type>
EC50

>  <Ligand Efficiency>


>  <Binding Efficiency>


>  <Surface Efficiency>


>  <Assay Index>
281342

>  <Assay Category>


>  <Assay Organism>
SARS coronavirus

>  <Target ID>
100499

>  <Target Name>
SARS coronavirus

>  <Target Organism>
SARS coronavirus

>  <Target Description>
Target is a complete organism

>  <Sequence Accession>


>  <Reference>
Bioorg. Med. Chem. 15 (2), 839-846 (2007)

>  <Pubmed ID>
17085053

>  <DOI>
10.1016/j.bmc.2006.10.043

>  <InChI-Key>
FKSIIAKCWOVQOZ-GEVIPFJHSA-N

>  <Molecular Formula>
C10H12N2O5

>  <Monoisotopic Mass>
240.074623

>  <Druglikeness>
3.464

$$$$
Compound 159
Actelion Java MolfileCreator 1.0

 17 18  0  0  1  0  0  0  0  0999 V2000
    0.0000   -0.0000   -0.0000 O   0  0  0  0  0  0  0  0  0  0  0  0
    0.0119   -1.4983   -0.0000 C   0  0  0  0  0  0  0  0  0  0  0  0
    1.3199   -2.2236   -0.0000 N   0  0  0  0  0  0  0  0  0  0  0  0
   -1.2842   -2.2474   -0.0000 N   0  0  0  0  0  0  0  0  0  0  0  0
    1.3199   -3.7219   -0.0000 C   0  0  0  0  0  0  0  0  0  0  0  0
   -1.2723   -3.7338   -0.0000 C   0  0  0  0  0  0  0  0  0  0  0  0
    2.6279   -4.4591   -0.0000 O   0  0  0  0  0  0  0  0  0  0  0  0
    0.0119   -4.4829   -0.0000 C   0  0  0  0  0  0  0  0  0  0  0  0
    0.0119   -5.9812   -0.0000 C   0  0  0  0  0  0  0  0  0  0  0  0
   -1.2129   -6.8611   -0.0000 C   0  0  0  0  0  0  0  0  0  0  0  0
    1.2367   -6.8373   -0.0000 C   0  0  0  0  0  0  0  0  0  0  0  0
   -0.7372   -8.2761   -0.0000 C   0  0  0  0  0  0  0  0  0  0  0  0
    2.6517   -6.3498   -0.0000 O   0  0  0  0  0  0  0  0  0  0  0  0
    0.7729   -8.2643   -0.0000 C   0  0  0  0  0  0  0  0  0  0  0  0
   -1.6291   -9.5009   -0.0000 C   0  0  0  0  0  0  0  0  0  0  0  0
    1.6529   -9.4652   -0.0000 O   0  0  0  0  0  0  0  0  0  0  0  0
   -3.1392   -9.3463   -0.0000 O   0  0  0  0  0  0  0  0  0  0  0  0
  1  2  2  0  0  0  0
  2  3  1  0  0  0  0
  2  4  1  0  0  0  0
  3  5  1  0  0  0  0
  4  6  1  0  0  0  0
  5  7  2  0  0  0  0
  5  8  1  0  0  0  0
  9  8  1  1  0  0  0
  9 10  1  0  0  0  0
  9 11  1  0  0  0  0
 10 12  2  0  0  0  0
 11 13  1  6  0  0  0
 11 14  1  0  0  0  0
 12 15  1  0  0  0  0
 14 16  1  6  0  0  0
 15 17  1  0  0  0  0
  6  8  2  0  0  0  0
 12 14  1  0  0  0  0
M  END
>  <MolRegNo>
376363

>  <m>
>

>  <Value>
1.0e5

>  <Unit>
nM

>  <Type>
IC50

>  <Ligand Efficiency>


>  <Binding Efficiency>


>  <Surface Efficiency>


>  <Assay Index>
281342

>  <Assay Category>


>  <Assay Organism>
SARS coronavirus

>  <Target ID>
100499

>  <Target Name>
SARS coronavirus

>  <Target Organism>
SARS coronavirus

>  <Target Description>
Target is a complete organism

>  <Sequence Accession>


>  <Reference>
Bioorg. Med. Chem. 15 (2), 839-846 (2007)

>  <Pubmed ID>
17085053

>  <DOI>
10.1016/j.bmc.2006.10.043

>  <InChI-Key>
FKSIIAKCWOVQOZ-GEVIPFJHSA-N

>  <Molecular Formula>
C10H12N2O5

>  <Monoisotopic Mass>
240.074623

>  <Druglikeness>
3.464

$$$$
Compound 160
Actelion Java MolfileCreator 1.0

 30 33  0  0  0  0  0  0  0  0999 V2000
    0.0000   -0.0000   -0.0000 Cl  0  0  0  0  0  0  0  0  0  0  0  0
    1.2817   -0.7358   -0.0000 C   0  0  0  0  0  0  0  0  0  0  0  0
    2.5635    0.0237   -0.0000 C   0  0  0  0  0  0  0  0  0  0  0  0
    1.2699   -2.2312   -0.0000 C   0  0  0  0  0  0  0  0  0  0  0  0
    3.8452   -0.7121   -0.0000 C   0  0  0  0  0  0  0  0  0  0  0  0
    2.5516    1.5310   -0.0000 C   0  0  0  0  0  0  0  0  0  0  0  0
    2.5516   -2.9670   -0.0000 C   0  0  0  0  0  0  0  0  0  0  0  0
    5.1270    0.0475   -0.0000 Cl  0  0  0  0  0  0  0  0  0  0  0  0
    3.8334   -2.2075   -0.0000 C   0  0  0  0  0  0  0  0  0  0  0  0
    3.7384    2.4211   -0.0000 S   0  0  0  0  0  0  0  0  0  0  0  0
    1.3173    2.4092   -0.0000 N   0  0  0  0  0  0  0  0  0  0  0  0
    3.2637    3.8571   -0.0000 C   0  0  0  0  0  0  0  0  0  0  0  0
   -0.1899    2.4092   -0.0000 C   0  0  0  0  0  0  0  0  0  0  0  0
    1.7683    3.8452   -0.0000 C   0  0  0  0  0  0  0  0  0  0  0  0
   -0.9494    3.7147   -0.0000 N   0  0  0  0  0  0  0  0  0  0  0  0
   -0.9376    1.1156   -0.0000 N   0  0  0  0  0  0  0  0  0  0  0  0
    0.8782    5.0676   -0.0000 O   0  0  0  0  0  0  0  0  0  0  0  0
   -2.4567    3.7147   -0.0000 C   0  0  0  0  0  0  0  0  0  0  0  0
   -2.4448    1.1156   -0.0000 C   0  0  0  0  0  0  0  0  0  0  0  0
   -3.2281    5.0202   -0.0000 C   0  0  0  0  0  0  0  0  0  0  0  0
   -3.2162    2.4211   -0.0000 C   0  0  0  0  0  0  0  0  0  0  0  0
   -3.1925   -0.1780   -0.0000 C   0  0  0  0  0  0  0  0  0  0  0  0
   -2.4923    6.3257   -0.0000 C   0  0  0  0  0  0  0  0  0  0  0  0
   -4.7235    5.0083   -0.0000 C   0  0  0  0  0  0  0  0  0  0  0  0
   -3.9639   -1.4479   -0.0000 F   0  0  0  0  0  0  0  0  0  0  0  0
   -1.9108   -0.9138   -0.0000 F   0  0  0  0  0  0  0  0  0  0  0  0
   -4.4980    0.5815   -0.0000 F   0  0  0  0  0  0  0  0  0  0  0  0
   -3.2518    7.6311   -0.0000 C   0  0  0  0  0  0  0  0  0  0  0  0
   -5.4949    6.3019   -0.0000 C   0  0  0  0  0  0  0  0  0  0  0  0
   -4.7591    7.6430   -0.0000 C   0  0  0  0  0  0  0  0  0  0  0  0
  1  2  1  0  0  0  0
  2  3  2  0  0  0  0
  2  4  1  0  0  0  0
  3  5  1  0  0  0  0
  3  6  1  0  0  0  0
  4  7  2  0  0  0  0
  5  8  1  0  0  0  0
  5  9  2  0  0  0  0
  6 10  1  0  0  0  0
  6 11  1  0  0  0  0
 10 12  1  0  0  0  0
 11 13  1  0  0  0  0
 11 14  1  0  0  0  0
 13 15  2  0  0  0  0
 13 16  1  0  0  0  0
 14 17  2  0  0  0  0
 15 18  1  0  0  0  0
 16 19  2  0  0  0  0
 18 20  1  0  0  0  0
 18 21  2  0  0  0  0
 19 22  1  0  0  0  0
 20 23  2  0  0  0  0
 20 24  1  0  0  0  0
 22 25  1  0  0  0  0
 22 26  1  0  0  0  0
 22 27  1  0  0  0  0
 23 28  1  0  0  0  0
 24 29  2  0  0  0  0
 28 30  2  0  0  0  0
  7  9  1  0  0  0  0
 12 14  1  0  0  0  0
 19 21  1  0  0  0  0
 29 30  1  0  0  0  0
M  END
>  <MolRegNo>
379287

>  <m>
<=

>  <Value>
50

>  <Unit>
%

>  <Type>
Inhibition

>  <Ligand Efficiency>


>  <Binding Efficiency>


>  <Surface Efficiency>


>  <Assay Index>
406904

>  <Assay Category>


>  <Assay Organism>
SARS coronavirus

>  <Target ID>
101075

>  <Target Name>
Replicase polyprotein 1ab

>  <Target Organism>
SARS coronavirus

>  <Target Description>
Target is a single protein chain

>  <Sequence Accession>
P0C6X7

>  <Reference>
Bioorg. Med. Chem. Lett. 18 (23), 6110-6114 (2008)

>  <Pubmed ID>
18947995

>  <DOI>
10.1016/j.bmcl.2008.10.023

>  <InChI-Key>
FNWZBSYDEOGGJU-UHFFFAOYSA-N

>  <Molecular Formula>
C20H12N3OCl2F3S

>  <Monoisotopic Mass>
469.003020

>  <Druglikeness>
-4.3367

$$$$
Compound 161
Actelion Java MolfileCreator 1.0

 33 35  0  0  0  0  0  0  0  0999 V2000
    0.0000   -0.0000   -0.0000 O   0  0  0  0  0  0  0  0  0  0  0  0
   -1.3077    0.7609   -0.0000 C   0  0  0  0  0  0  0  0  0  0  0  0
   -1.3196    2.2707   -0.0000 N   0  0  0  0  0  0  0  0  0  0  0  0
   -2.6155    0.0238   -0.0000 C   0  0  0  0  0  0  0  0  0  0  0  0
   -2.6273    3.0315   -0.0000 C   0  0  0  0  0  0  0  0  0  0  0  0
   -3.9232    0.7846   -0.0000 C   0  0  0  0  0  0  0  0  0  0  0  0
   -2.6155   -1.4504   -0.0000 C   0  0  0  0  0  0  0  0  0  0  0  0
   -2.6392    4.5414   -0.0000 C   0  0  0  0  0  0  0  0  0  0  0  0
   -3.9351    2.2945   -0.0000 C   0  0  0  0  0  0  0  0  0  0  0  0
   -5.2309    0.0476   -0.0000 C   0  0  0  0  0  0  0  0  0  0  0  0
   -3.9232   -2.1994   -0.0000 C   0  0  0  0  0  0  0  0  0  0  0  0
   -3.9470    5.3022   -0.0000 O   0  0  0  0  0  0  0  0  0  0  0  0
   -1.3553    5.3022   -0.0000 N   0  0  0  0  0  0  0  0  0  0  0  0
   -5.2428    3.0553   -0.0000 C   0  0  0  0  0  0  0  0  0  0  0  0
   -5.2428   -1.4385   -0.0000 C   0  0  0  0  0  0  0  0  0  0  0  0
   -0.0713    4.5652   -0.0000 N   0  0  0  0  0  0  0  0  0  0  0  0
   -6.5624    2.3182   -0.0000 C   0  0  0  0  0  0  0  0  0  0  0  0
   -5.2547    4.5770   -0.0000 C   0  0  0  0  0  0  0  0  0  0  0  0
    1.2126    5.3260   -0.0000 C   0  0  0  0  0  0  0  0  0  0  0  0
   -7.8701    3.0791   -0.0000 C   0  0  0  0  0  0  0  0  0  0  0  0
   -6.5624    5.3379   -0.0000 C   0  0  0  0  0  0  0  0  0  0  0  0
    2.4966    4.5889   -0.0000 C   0  0  0  0  0  0  0  0  0  0  0  0
   -7.8820    4.6008   -0.0000 C   0  0  0  0  0  0  0  0  0  0  0  0
    3.7686    5.3617   -0.0000 C   0  0  0  0  0  0  0  0  0  0  0  0
    2.4847    3.1029   -0.0000 C   0  0  0  0  0  0  0  0  0  0  0  0
    5.0526    4.6365   -0.0000 C   0  0  0  0  0  0  0  0  0  0  0  0
    3.7686    2.3658   -0.0000 C   0  0  0  0  0  0  0  0  0  0  0  0
    6.3365    5.4092   -0.0000 O   0  0  0  0  0  0  0  0  0  0  0  0
    5.0526    3.1385   -0.0000 C   0  0  0  0  0  0  0  0  0  0  0  0
    3.7567    0.8797   -0.0000 O   0  0  0  0  0  0  0  0  0  0  0  0
    7.6324    4.6721   -0.0000 C   0  0  0  0  0  0  0  0  0  0  0  0
    6.3365    2.4015   -0.0000 O   0  0  0  0  0  0  0  0  0  0  0  0
    2.4490    0.1427   -0.0000 C   0  0  0  0  0  0  0  0  0  0  0  0
  1  2  2  0  0  0  0
  2  3  1  0  0  0  0
  2  4  1  0  0  0  0
  3  5  1  0  0  0  0
  4  6  2  0  0  0  0
  4  7  1  0  0  0  0
  5  8  1  0  0  0  0
  5  9  2  0  0  0  0
  6 10  1  0  0  0  0
  7 11  2  0  0  0  0
  8 12  2  0  0  0  0
  8 13  1  0  0  0  0
  9 14  1  0  0  0  0
 10 15  2  0  0  0  0
 13 16  1  0  0  0  0
 14 17  2  0  0  0  0
 14 18  1  0  0  0  0
 16 19  2  0  0  0  0
 17 20  1  0  0  0  0
 18 21  2  0  0  0  0
 19 22  1  0  0  0  0
 20 23  2  0  0  0  0
 22 24  2  0  0  0  0
 22 25  1  0  0  0  0
 24 26  1  0  0  0  0
 25 27  2  0  0  0  0
 26 28  1  0  0  0  0
 26 29  2  0  0  0  0
 27 30  1  0  0  0  0
 28 31  1  0  0  0  0
 29 32  1  0  0  0  0
 30 33  1  0  0  0  0
 11 15  1  0  0  0  0
 21 23  1  0  0  0  0
 27 29  1  0  0  0  0
M  END
>  <MolRegNo>
1145371

>  <m>
=

>  <Value>
77090

>  <Unit>
nM

>  <Type>
IC50

>  <Ligand Efficiency>
0.17

>  <Binding Efficiency>
9.23

>  <Surface Efficiency>
3.76

>  <Assay Index>
589666

>  <Assay Category>


>  <Assay Organism>
SARS coronavirus

>  <Target ID>
101075

>  <Target Name>
Replicase polyprotein 1ab

>  <Target Organism>
SARS coronavirus

>  <Target Description>
Target is a single protein chain

>  <Sequence Accession>
P0C6X7

>  <Reference>
Bioorg. Med. Chem. Lett. 21 (10), 3088-3091 (2011)

>  <Pubmed ID>
21470860

>  <DOI>
10.1016/j.bmcl.2011.03.034

>  <InChI-Key>
FNYFSVWJEDFLBU-UHFFFAOYSA-N

>  <Molecular Formula>
C25H23N3O5

>  <Monoisotopic Mass>
445.163772

>  <Druglikeness>
6.3458

$$$$
Compound 162
Actelion Java MolfileCreator 1.0

 33 35  0  0  0  0  0  0  0  0999 V2000
    0.0000   -0.0000   -0.0000 O   0  0  0  0  0  0  0  0  0  0  0  0
   -1.3077    0.7609   -0.0000 C   0  0  0  0  0  0  0  0  0  0  0  0
   -1.3196    2.2707   -0.0000 N   0  0  0  0  0  0  0  0  0  0  0  0
   -2.6155    0.0238   -0.0000 C   0  0  0  0  0  0  0  0  0  0  0  0
   -2.6273    3.0315   -0.0000 C   0  0  0  0  0  0  0  0  0  0  0  0
   -3.9232    0.7846   -0.0000 C   0  0  0  0  0  0  0  0  0  0  0  0
   -2.6155   -1.4504   -0.0000 C   0  0  0  0  0  0  0  0  0  0  0  0
   -2.6392    4.5414   -0.0000 C   0  0  0  0  0  0  0  0  0  0  0  0
   -3.9351    2.2945   -0.0000 C   0  0  0  0  0  0  0  0  0  0  0  0
   -5.2309    0.0476   -0.0000 C   0  0  0  0  0  0  0  0  0  0  0  0
   -3.9232   -2.1994   -0.0000 C   0  0  0  0  0  0  0  0  0  0  0  0
   -3.9470    5.3022   -0.0000 O   0  0  0  0  0  0  0  0  0  0  0  0
   -1.3553    5.3022   -0.0000 N   0  0  0  0  0  0  0  0  0  0  0  0
   -5.2428    3.0553   -0.0000 C   0  0  0  0  0  0  0  0  0  0  0  0
   -5.2428   -1.4385   -0.0000 C   0  0  0  0  0  0  0  0  0  0  0  0
   -0.0713    4.5652   -0.0000 N   0  0  0  0  0  0  0  0  0  0  0  0
   -6.5624    2.3182   -0.0000 C   0  0  0  0  0  0  0  0  0  0  0  0
   -5.2547    4.5770   -0.0000 C   0  0  0  0  0  0  0  0  0  0  0  0
    1.2126    5.3260   -0.0000 C   0  0  0  0  0  0  0  0  0  0  0  0
   -7.8701    3.0791   -0.0000 C   0  0  0  0  0  0  0  0  0  0  0  0
   -6.5624    5.3379   -0.0000 C   0  0  0  0  0  0  0  0  0  0  0  0
    2.4966    4.5889   -0.0000 C   0  0  0  0  0  0  0  0  0  0  0  0
   -7.8820    4.6008   -0.0000 C   0  0  0  0  0  0  0  0  0  0  0  0
    3.7686    5.3617   -0.0000 C   0  0  0  0  0  0  0  0  0  0  0  0
    2.4847    3.1029   -0.0000 C   0  0  0  0  0  0  0  0  0  0  0  0
    5.0526    4.6365   -0.0000 C   0  0  0  0  0  0  0  0  0  0  0  0
    3.7686    2.3658   -0.0000 C   0  0  0  0  0  0  0  0  0  0  0  0
    6.3365    5.4092   -0.0000 O   0  0  0  0  0  0  0  0  0  0  0  0
    5.0526    3.1385   -0.0000 C   0  0  0  0  0  0  0  0  0  0  0  0
    3.7567    0.8797   -0.0000 O   0  0  0  0  0  0  0  0  0  0  0  0
    7.6324    4.6721   -0.0000 C   0  0  0  0  0  0  0  0  0  0  0  0
    6.3365    2.4015   -0.0000 O   0  0  0  0  0  0  0  0  0  0  0  0
    2.4490    0.1427   -0.0000 C   0  0  0  0  0  0  0  0  0  0  0  0
  1  2  2  0  0  0  0
  2  3  1  0  0  0  0
  2  4  1  0  0  0  0
  3  5  1  0  0  0  0
  4  6  2  0  0  0  0
  4  7  1  0  0  0  0
  5  8  1  0  0  0  0
  5  9  2  0  0  0  0
  6 10  1  0  0  0  0
  7 11  2  0  0  0  0
  8 12  2  0  0  0  0
  8 13  1  0  0  0  0
  9 14  1  0  0  0  0
 10 15  2  0  0  0  0
 13 16  1  0  0  0  0
 14 17  2  0  0  0  0
 14 18  1  0  0  0  0
 16 19  2  0  0  0  0
 17 20  1  0  0  0  0
 18 21  2  0  0  0  0
 19 22  1  0  0  0  0
 20 23  2  0  0  0  0
 22 24  2  0  0  0  0
 22 25  1  0  0  0  0
 24 26  1  0  0  0  0
 25 27  2  0  0  0  0
 26 28  1  0  0  0  0
 26 29  2  0  0  0  0
 27 30  1  0  0  0  0
 28 31  1  0  0  0  0
 29 32  1  0  0  0  0
 30 33  1  0  0  0  0
 11 15  1  0  0  0  0
 21 23  1  0  0  0  0
 27 29  1  0  0  0  0
M  END
>  <MolRegNo>
1145371

>  <m>
=

>  <Value>
56.11

>  <Unit>
%

>  <Type>
Inhibition

>  <Ligand Efficiency>


>  <Binding Efficiency>


>  <Surface Efficiency>


>  <Assay Index>
589665

>  <Assay Category>


>  <Assay Organism>
SARS coronavirus

>  <Target ID>
101075

>  <Target Name>
Replicase polyprotein 1ab

>  <Target Organism>
SARS coronavirus

>  <Target Description>
Target is a single protein chain

>  <Sequence Accession>
P0C6X7

>  <Reference>
Bioorg. Med. Chem. Lett. 21 (10), 3088-3091 (2011)

>  <Pubmed ID>
21470860

>  <DOI>
10.1016/j.bmcl.2011.03.034

>  <InChI-Key>
FNYFSVWJEDFLBU-UHFFFAOYSA-N

>  <Molecular Formula>
C25H23N3O5

>  <Monoisotopic Mass>
445.163772

>  <Druglikeness>
6.3458

$$$$
Compound 163
Actelion Java MolfileCreator 1.0

 30 32  0  0  0  0  0  0  0  0999 V2000
    0.0000   -0.0000   -0.0000 S   0  0  0  0  0  0  0  0  0  0  0  0
    1.2849   -0.7376   -0.0000 C   0  0  0  0  0  0  0  0  0  0  0  0
   -1.3086   -0.7376   -0.0000 C   0  0  0  0  0  0  0  0  0  0  0  0
    1.2611   -2.2247   -0.0000 N   0  0  0  0  0  0  0  0  0  0  0  0
    2.5578    0.0357   -0.0000 N   0  0  0  0  0  0  0  0  0  0  0  0
   -2.6173    0.0238   -0.0000 C   0  0  0  0  0  0  0  0  0  0  0  0
    2.5459   -2.9623   -0.0000 C   0  0  0  0  0  0  0  0  0  0  0  0
    3.8427   -0.6900   -0.0000 C   0  0  0  0  0  0  0  0  0  0  0  0
   -2.6292    1.5347   -0.0000 O   0  0  0  0  0  0  0  0  0  0  0  0
   -3.9259   -0.7138   -0.0000 N   0  0  0  0  0  0  0  0  0  0  0  0
    2.5340   -4.4494   -0.0000 O   0  0  0  0  0  0  0  0  0  0  0  0
    3.8308   -2.2009   -0.0000 C   0  0  0  0  0  0  0  0  0  0  0  0
    5.1275    0.0833   -0.0000 C   0  0  0  0  0  0  0  0  0  0  0  0
   -5.2346    0.0476   -0.0000 C   0  0  0  0  0  0  0  0  0  0  0  0
    5.1156   -2.9385   -0.0000 C   0  0  0  0  0  0  0  0  0  0  0  0
    6.4124   -0.6543   -0.0000 C   0  0  0  0  0  0  0  0  0  0  0  0
    5.1037    1.5942   -0.0000 C   0  0  0  0  0  0  0  0  0  0  0  0
   -5.2465    1.5704   -0.0000 C   0  0  0  0  0  0  0  0  0  0  0  0
   -6.5551   -0.6900   -0.0000 C   0  0  0  0  0  0  0  0  0  0  0  0
    6.3886   -3.6761   -0.0000 N   0  0  0  0  0  0  0  0  0  0  0  0
    7.6972    0.1071   -0.0000 C   0  0  0  0  0  0  0  0  0  0  0  0
    6.4005    2.3556   -0.0000 C   0  0  0  0  0  0  0  0  0  0  0  0
   -6.5670    2.3199   -0.0000 C   0  0  0  0  0  0  0  0  0  0  0  0
   -7.8638    0.0714   -0.0000 C   0  0  0  0  0  0  0  0  0  0  0  0
    7.6853    1.6180   -0.0000 C   0  0  0  0  0  0  0  0  0  0  0  0
   -7.8638    1.5823   -0.0000 C   0  0  0  0  0  0  0  0  0  0  0  0
   -6.5908    3.8308   -0.0000 C   0  0  0  0  0  0  0  0  0  0  0  0
   -8.1136    3.8546   -0.0000 F   0  0  0  0  0  0  0  0  0  0  0  0
   -5.1037    3.8546   -0.0000 F   0  0  0  0  0  0  0  0  0  0  0  0
   -6.6146    5.3536   -0.0000 F   0  0  0  0  0  0  0  0  0  0  0  0
  1  2  1  0  0  0  0
  1  3  1  0  0  0  0
  2  4  2  0  0  0  0
  2  5  1  0  0  0  0
  3  6  1  0  0  0  0
  4  7  1  0  0  0  0
  5  8  2  0  0  0  0
  6  9  2  0  0  0  0
  6 10  1  0  0  0  0
  7 11  1  0  0  0  0
  7 12  2  0  0  0  0
  8 13  1  0  0  0  0
 10 14  1  0  0  0  0
 12 15  1  0  0  0  0
 13 16  2  0  0  0  0
 13 17  1  0  0  0  0
 14 18  2  0  0  0  0
 14 19  1  0  0  0  0
 15 20  3  0  0  0  0
 16 21  1  0  0  0  0
 17 22  2  0  0  0  0
 18 23  1  0  0  0  0
 19 24  2  0  0  0  0
 21 25  2  0  0  0  0
 23 26  2  0  0  0  0
 23 27  1  0  0  0  0
 27 28  1  0  0  0  0
 27 29  1  0  0  0  0
 27 30  1  0  0  0  0
  8 12  1  0  0  0  0
 22 25  1  0  0  0  0
 24 26  1  0  0  0  0
M  END
>  <MolRegNo>
349387

>  <m>
=

>  <Value>
4.8978e12

>  <Unit>
nM

>  <Type>
IC50

>  <Ligand Efficiency>


>  <Binding Efficiency>


>  <Surface Efficiency>


>  <Assay Index>
262926

>  <Assay Category>


>  <Assay Organism>
SARS coronavirus

>  <Target ID>
20012

>  <Target Name>
SARS coronavirus 3C-like proteinase

>  <Target Organism>
SARS coronavirus

>  <Target Description>
Target is a single protein chain

>  <Sequence Accession>
P0C6U8

>  <Reference>
J. Med. Chem. 49 (12), 3485-3495 (2006)

>  <Pubmed ID>
16759091

>  <DOI>
10.1021/jm050852f

>  <InChI-Key>
FNZHACBCLXJSBM-UHFFFAOYSA-N

>  <Molecular Formula>
C20H13N4O2F3S

>  <Monoisotopic Mass>
430.071130

>  <Druglikeness>
-10.064

$$$$
Compound 164
Actelion Java MolfileCreator 1.0

 30 32  0  0  0  0  0  0  0  0999 V2000
    0.0000   -0.0000   -0.0000 S   0  0  0  0  0  0  0  0  0  0  0  0
    1.2849   -0.7376   -0.0000 C   0  0  0  0  0  0  0  0  0  0  0  0
   -1.3086   -0.7376   -0.0000 C   0  0  0  0  0  0  0  0  0  0  0  0
    1.2611   -2.2247   -0.0000 N   0  0  0  0  0  0  0  0  0  0  0  0
    2.5578    0.0357   -0.0000 N   0  0  0  0  0  0  0  0  0  0  0  0
   -2.6173    0.0238   -0.0000 C   0  0  0  0  0  0  0  0  0  0  0  0
    2.5459   -2.9623   -0.0000 C   0  0  0  0  0  0  0  0  0  0  0  0
    3.8427   -0.6900   -0.0000 C   0  0  0  0  0  0  0  0  0  0  0  0
   -2.6292    1.5347   -0.0000 O   0  0  0  0  0  0  0  0  0  0  0  0
   -3.9259   -0.7138   -0.0000 N   0  0  0  0  0  0  0  0  0  0  0  0
    2.5340   -4.4494   -0.0000 O   0  0  0  0  0  0  0  0  0  0  0  0
    3.8308   -2.2009   -0.0000 C   0  0  0  0  0  0  0  0  0  0  0  0
    5.1275    0.0833   -0.0000 C   0  0  0  0  0  0  0  0  0  0  0  0
   -5.2346    0.0476   -0.0000 C   0  0  0  0  0  0  0  0  0  0  0  0
    5.1156   -2.9385   -0.0000 C   0  0  0  0  0  0  0  0  0  0  0  0
    6.4124   -0.6543   -0.0000 C   0  0  0  0  0  0  0  0  0  0  0  0
    5.1037    1.5942   -0.0000 C   0  0  0  0  0  0  0  0  0  0  0  0
   -5.2465    1.5704   -0.0000 C   0  0  0  0  0  0  0  0  0  0  0  0
   -6.5551   -0.6900   -0.0000 C   0  0  0  0  0  0  0  0  0  0  0  0
    6.3886   -3.6761   -0.0000 N   0  0  0  0  0  0  0  0  0  0  0  0
    7.6972    0.1071   -0.0000 C   0  0  0  0  0  0  0  0  0  0  0  0
    6.4005    2.3556   -0.0000 C   0  0  0  0  0  0  0  0  0  0  0  0
   -6.5670    2.3199   -0.0000 C   0  0  0  0  0  0  0  0  0  0  0  0
   -7.8638    0.0714   -0.0000 C   0  0  0  0  0  0  0  0  0  0  0  0
    7.6853    1.6180   -0.0000 C   0  0  0  0  0  0  0  0  0  0  0  0
   -7.8638    1.5823   -0.0000 C   0  0  0  0  0  0  0  0  0  0  0  0
   -6.5908    3.8308   -0.0000 C   0  0  0  0  0  0  0  0  0  0  0  0
   -8.1136    3.8546   -0.0000 F   0  0  0  0  0  0  0  0  0  0  0  0
   -5.1037    3.8546   -0.0000 F   0  0  0  0  0  0  0  0  0  0  0  0
   -6.6146    5.3536   -0.0000 F   0  0  0  0  0  0  0  0  0  0  0  0
  1  2  1  0  0  0  0
  1  3  1  0  0  0  0
  2  4  2  0  0  0  0
  2  5  1  0  0  0  0
  3  6  1  0  0  0  0
  4  7  1  0  0  0  0
  5  8  2  0  0  0  0
  6  9  2  0  0  0  0
  6 10  1  0  0  0  0
  7 11  1  0  0  0  0
  7 12  2  0  0  0  0
  8 13  1  0  0  0  0
 10 14  1  0  0  0  0
 12 15  1  0  0  0  0
 13 16  2  0  0  0  0
 13 17  1  0  0  0  0
 14 18  2  0  0  0  0
 14 19  1  0  0  0  0
 15 20  3  0  0  0  0
 16 21  1  0  0  0  0
 17 22  2  0  0  0  0
 18 23  1  0  0  0  0
 19 24  2  0  0  0  0
 21 25  2  0  0  0  0
 23 26  2  0  0  0  0
 23 27  1  0  0  0  0
 27 28  1  0  0  0  0
 27 29  1  0  0  0  0
 27 30  1  0  0  0  0
  8 12  1  0  0  0  0
 22 25  1  0  0  0  0
 24 26  1  0  0  0  0
M  END
>  <MolRegNo>
349387

>  <m>
=

>  <Value>
2.0e5

>  <Unit>
nM

>  <Type>
IC50

>  <Ligand Efficiency>


>  <Binding Efficiency>


>  <Surface Efficiency>


>  <Assay Index>
262926

>  <Assay Category>


>  <Assay Organism>
SARS coronavirus

>  <Target ID>
20012

>  <Target Name>
SARS coronavirus 3C-like proteinase

>  <Target Organism>
SARS coronavirus

>  <Target Description>
Target is a single protein chain

>  <Sequence Accession>
P0C6U8

>  <Reference>
J. Med. Chem. 49 (12), 3485-3495 (2006)

>  <Pubmed ID>
16759091

>  <DOI>
10.1021/jm050852f

>  <InChI-Key>
FNZHACBCLXJSBM-UHFFFAOYSA-N

>  <Molecular Formula>
C20H13N4O2F3S

>  <Monoisotopic Mass>
430.071130

>  <Druglikeness>
-10.064

$$$$
Compound 165
Actelion Java MolfileCreator 1.0

 33 37  0  0  0  0  0  0  0  0999 V2000
    0.0000   -0.0000   -0.0000 O   0  0  0  0  0  0  0  0  0  0  0  0
   -1.1784    0.3848   -0.0000 C   0  0  0  0  0  0  0  0  0  0  0  0
   -2.4289   -0.5050   -0.0000 N   0  0  0  0  0  0  0  0  0  0  0  0
   -1.6713    1.8276   -0.0000 C   0  0  0  0  0  0  0  0  0  0  0  0
   -3.6793    0.4088   -0.0000 N   0  0  0  0  0  0  0  0  0  0  0  0
   -2.4409   -2.0200   -0.0000 C   0  0  0  0  0  0  0  0  0  0  0  0
   -3.1984    1.8517   -0.0000 C   0  0  0  0  0  0  0  0  0  0  0  0
   -0.7936    3.0781   -0.0000 C   0  0  0  0  0  0  0  0  0  0  0  0
   -1.1904   -2.8617   -0.0000 C   0  0  0  0  0  0  0  0  0  0  0  0
   -3.8357   -2.6693   -0.0000 C   0  0  0  0  0  0  0  0  0  0  0  0
   -4.1002    3.1022   -0.0000 C   0  0  0  0  0  0  0  0  0  0  0  0
    0.7094    2.9339   -0.0000 C   0  0  0  0  0  0  0  0  0  0  0  0
   -1.3106   -4.3767   -0.0000 C   0  0  0  0  0  0  0  0  0  0  0  0
   -3.9559   -4.1844   -0.0000 C   0  0  0  0  0  0  0  0  0  0  0  0
   -3.5952    4.5451   -0.0000 C   0  0  0  0  0  0  0  0  0  0  0  0
   -5.6152    2.8377   -0.0000 C   0  0  0  0  0  0  0  0  0  0  0  0
    1.7194    4.0761   -0.0000 O   0  0  0  0  0  0  0  0  0  0  0  0
    1.4669    1.6232   -0.0000 C   0  0  0  0  0  0  0  0  0  0  0  0
   -2.6934   -5.0260   -0.0000 C   0  0  0  0  0  0  0  0  0  0  0  0
   -4.5932    5.7234   -0.0000 C   0  0  0  0  0  0  0  0  0  0  0  0
   -6.6132    4.0160   -0.0000 C   0  0  0  0  0  0  0  0  0  0  0  0
    3.0781    3.4629   -0.0000 C   0  0  0  0  0  0  0  0  0  0  0  0
    2.9459    1.9599   -0.0000 C   0  0  0  0  0  0  0  0  0  0  0  0
   -6.1082    5.4589   -0.0000 C   0  0  0  0  0  0  0  0  0  0  0  0
    4.3888    4.2325   -0.0000 C   0  0  0  0  0  0  0  0  0  0  0  0
    5.6994    3.4870   -0.0000 C   0  0  0  0  0  0  0  0  0  0  0  0
    4.3767    5.7715   -0.0000 C   0  0  0  0  0  0  0  0  0  0  0  0
    5.6874    1.9719   -0.0000 C   0  0  0  0  0  0  0  0  0  0  0  0
    7.0100    4.2565   -0.0000 C   0  0  0  0  0  0  0  0  0  0  0  0
    5.6874    6.5411   -0.0000 C   0  0  0  0  0  0  0  0  0  0  0  0
    6.7334    1.3707   -0.0000 O   0  0  0  0  0  0  0  0  0  0  0  0
    4.6172    1.3707   -0.0000 O   0  0  0  0  0  0  0  0  0  0  0  0
    6.9980    5.7956   -0.0000 C   0  0  0  0  0  0  0  0  0  0  0  0
  1  2  2  0  0  0  0
  2  3  1  0  0  0  0
  2  4  1  0  0  0  0
  3  5  1  0  0  0  0
  3  6  1  0  0  0  0
  4  7  1  0  0  0  0
  4  8  2  0  0  0  0
  6  9  2  0  0  0  0
  6 10  1  0  0  0  0
  7 11  1  0  0  0  0
  8 12  1  0  0  0  0
  9 13  1  0  0  0  0
 10 14  2  0  0  0  0
 11 15  2  0  0  0  0
 11 16  1  0  0  0  0
 12 17  1  0  0  0  0
 12 18  2  0  0  0  0
 13 19  2  0  0  0  0
 15 20  1  0  0  0  0
 16 21  2  0  0  0  0
 17 22  1  0  0  0  0
 18 23  1  0  0  0  0
 20 24  2  0  0  0  0
 22 25  1  0  0  0  0
 25 26  2  0  0  0  0
 25 27  1  0  0  0  0
 26 28  1  0  0  0  0
 26 29  1  0  0  0  0
 27 30  2  0  0  0  0
 28 31  2  0  0  0  0
 28 32  1  0  0  0  0
 29 33  2  0  0  0  0
  5  7  2  0  0  0  0
 14 19  1  0  0  0  0
 21 24  1  0  0  0  0
 22 23  2  0  0  0  0
 30 33  1  0  0  0  0
M  END
>  <MolRegNo>
2087897

>  <m>
=

>  <Value>
41200

>  <Unit>
nM

>  <Type>
IC50

>  <Ligand Efficiency>
0.18

>  <Binding Efficiency>
10.09

>  <Surface Efficiency>
5.28

>  <Assay Index>
1017144

>  <Assay Category>


>  <Assay Organism>
SARS coronavirus

>  <Target ID>
101075

>  <Target Name>
Replicase polyprotein 1ab

>  <Target Organism>
SARS coronavirus

>  <Target Description>
Target is a single protein chain

>  <Sequence Accession>
P0C6X7

>  <Reference>
Bioorg. Med. Chem. 24 (13), 3035-3042 (2016)

>  <Pubmed ID>
27240464

>  <DOI>
10.1016/j.bmc.2016.05.013

>  <InChI-Key>
FPDHFAJPJUEJDC-UHFFFAOYSA-N

>  <Molecular Formula>
C27H18N2O4

>  <Monoisotopic Mass>
434.126658

>  <Druglikeness>
4.9703

$$$$
Compound 166
Actelion Java MolfileCreator 1.0

 29 32  0  0  0  0  0  0  0  0999 V2000
    0.0000   -0.0000   -0.0000 O   0  0  0  0  0  0  0  0  0  0  0  0
    1.2894    0.7571   -0.0000 C   0  0  0  0  0  0  0  0  0  0  0  0
    1.2775    2.2712   -0.0000 N   0  0  0  0  0  0  0  0  0  0  0  0
    2.5787    0.0237   -0.0000 C   0  0  0  0  0  0  0  0  0  0  0  0
   -0.0355    3.0283   -0.0000 C   0  0  0  0  0  0  0  0  0  0  0  0
    3.8681    0.7807   -0.0000 C   0  0  0  0  0  0  0  0  0  0  0  0
    2.5669   -1.4668   -0.0000 C   0  0  0  0  0  0  0  0  0  0  0  0
   -0.0473    4.5424   -0.0000 C   0  0  0  0  0  0  0  0  0  0  0  0
    5.1575    0.0473   -0.0000 C   0  0  0  0  0  0  0  0  0  0  0  0
    3.8563   -2.2002   -0.0000 C   0  0  0  0  0  0  0  0  0  0  0  0
   -1.3603    5.2994   -0.0000 C   0  0  0  0  0  0  0  0  0  0  0  0
    1.2421    5.2994   -0.0000 C   0  0  0  0  0  0  0  0  0  0  0  0
    5.1457   -1.4432   -0.0000 N   0  0  0  0  0  0  0  0  0  0  0  0
   -1.3722    6.8136   -0.0000 C   0  0  0  0  0  0  0  0  0  0  0  0
    1.2302    6.8136   -0.0000 C   0  0  0  0  0  0  0  0  0  0  0  0
    6.4350   -2.1766   -0.0000 C   0  0  0  0  0  0  0  0  0  0  0  0
   -0.0828    7.5706   -0.0000 C   0  0  0  0  0  0  0  0  0  0  0  0
    6.4232   -3.6670   -0.0000 C   0  0  0  0  0  0  0  0  0  0  0  0
   -0.0946    9.0848   -0.0000 O   0  0  0  0  0  0  0  0  0  0  0  0
    5.1102   -4.4004   -0.0000 C   0  0  0  0  0  0  0  0  0  0  0  0
    7.7126   -4.4004   -0.0000 C   0  0  0  0  0  0  0  0  0  0  0  0
   -1.4077    9.8418   -0.0000 C   0  0  0  0  0  0  0  0  0  0  0  0
    5.0984   -5.8909   -0.0000 C   0  0  0  0  0  0  0  0  0  0  0  0
    3.7972   -3.6434   -0.0000 C   0  0  0  0  0  0  0  0  0  0  0  0
    7.7008   -5.8909   -0.0000 C   0  0  0  0  0  0  0  0  0  0  0  0
    6.3877   -6.6243   -0.0000 C   0  0  0  0  0  0  0  0  0  0  0  0
    3.7853   -6.6243   -0.0000 C   0  0  0  0  0  0  0  0  0  0  0  0
    2.4841   -4.3768   -0.0000 C   0  0  0  0  0  0  0  0  0  0  0  0
    2.4723   -5.8672   -0.0000 C   0  0  0  0  0  0  0  0  0  0  0  0
  1  2  2  0  0  0  0
  2  3  1  0  0  0  0
  2  4  1  0  0  0  0
  3  5  1  0  0  0  0
  4  6  1  0  0  0  0
  4  7  1  0  0  0  0
  5  8  1  0  0  0  0
  6  9  1  0  0  0  0
  7 10  1  0  0  0  0
  8 11  2  0  0  0  0
  8 12  1  0  0  0  0
  9 13  1  0  0  0  0
 11 14  1  0  0  0  0
 12 15  2  0  0  0  0
 13 16  1  0  0  0  0
 14 17  2  0  0  0  0
 16 18  1  0  0  0  0
 17 19  1  0  0  0  0
 18 20  1  0  0  0  0
 18 21  2  0  0  0  0
 19 22  1  0  0  0  0
 20 23  1  0  0  0  0
 20 24  2  0  0  0  0
 21 25  1  0  0  0  0
 23 26  1  0  0  0  0
 23 27  2  0  0  0  0
 24 28  1  0  0  0  0
 27 29  1  0  0  0  0
 10 13  1  0  0  0  0
 15 17  1  0  0  0  0
 25 26  2  0  0  0  0
 28 29  2  0  0  0  0
M  END
>  <MolRegNo>
650991

>  <m>


>  <Value>
0

>  <Unit>


>  <Type>
EC50

>  <Ligand Efficiency>


>  <Binding Efficiency>


>  <Surface Efficiency>


>  <Assay Index>
486973

>  <Assay Category>


>  <Assay Organism>
SARS coronavirus

>  <Target ID>
100499

>  <Target Name>
SARS coronavirus

>  <Target Organism>
SARS coronavirus

>  <Target Description>
Target is a complete organism

>  <Sequence Accession>


>  <Reference>
J. Med. Chem. 53 (13), 4968-4979 (2010)

>  <Pubmed ID>
20527968

>  <DOI>
10.1021/jm1004489

>  <InChI-Key>
FPSLGKGTZSFLOH-UHFFFAOYSA-N

>  <Molecular Formula>
C25H28N2O2

>  <Monoisotopic Mass>
388.215078

>  <Druglikeness>
7.1257

$$$$
Compound 167
Actelion Java MolfileCreator 1.0

 34 39  0  0  0  0  0  0  0  0999 V2000
    0.0000   -0.0000   -0.0000 S   0  0  0  0  0  0  0  0  0  0  0  0
   -1.4446   -0.4618   -0.0000 C   0  0  0  0  0  0  0  0  0  0  0  0
    0.8763   -1.1960   -0.0000 C   0  0  0  0  0  0  0  0  0  0  0  0
   -2.7472    0.3079   -0.0000 N   0  0  0  0  0  0  0  0  0  0  0  0
   -1.4446   -1.9538   -0.0000 C   0  0  0  0  0  0  0  0  0  0  0  0
    2.3564   -1.3262   -0.0000 C   0  0  0  0  0  0  0  0  0  0  0  0
   -0.0118   -2.4038   -0.0000 C   0  0  0  0  0  0  0  0  0  0  0  0
   -4.0497   -0.4381   -0.0000 C   0  0  0  0  0  0  0  0  0  0  0  0
   -2.7590   -2.6880   -0.0000 C   0  0  0  0  0  0  0  0  0  0  0  0
    3.2208   -0.0947   -0.0000 S   0  0  0  0  0  0  0  0  0  0  0  0
    2.9603   -2.6880   -0.0000 N   0  0  0  0  0  0  0  0  0  0  0  0
    0.5802   -3.7537   -0.0000 N   0  0  0  0  0  0  0  0  0  0  0  0
   -5.3641    0.3197   -0.0000 N   0  0  0  0  0  0  0  0  0  0  0  0
   -4.0616   -1.9301   -0.0000 C   0  0  0  0  0  0  0  0  0  0  0  0
   -2.7590   -4.1682   -0.0000 C   0  0  0  0  0  0  0  0  0  0  0  0
    4.7129   -0.0592   -0.0000 C   0  0  0  0  0  0  0  0  0  0  0  0
    2.0722   -3.8958   -0.0000 C   0  0  0  0  0  0  0  0  0  0  0  0
   -5.3878    1.8354   -0.0000 C   0  0  0  0  0  0  0  0  0  0  0  0
   -6.6785   -0.4263   -0.0000 C   0  0  0  0  0  0  0  0  0  0  0  0
   -5.3523   -2.6643   -0.0000 C   0  0  0  0  0  0  0  0  0  0  0  0
   -4.0616   -4.9023   -0.0000 C   0  0  0  0  0  0  0  0  0  0  0  0
    5.4352    1.2670   -0.0000 C   0  0  0  0  0  0  0  0  0  0  0  0
   -6.6904    2.5933   -0.0000 C   0  0  0  0  0  0  0  0  0  0  0  0
   -7.9929    0.3434   -0.0000 C   0  0  0  0  0  0  0  0  0  0  0  0
   -5.3641   -4.1445   -0.0000 C   0  0  0  0  0  0  0  0  0  0  0  0
    4.6537    2.5696   -0.0000 O   0  0  0  0  0  0  0  0  0  0  0  0
    6.9272    1.3025   -0.0000 N   0  0  0  0  0  0  0  0  0  0  0  0
   -8.0048    1.8591   -0.0000 O   0  0  0  0  0  0  0  0  0  0  0  0
    7.6495    2.6288   -0.0000 C   0  0  0  0  0  0  0  0  0  0  0  0
    9.1415    2.6643   -0.0000 C   0  0  0  0  0  0  0  0  0  0  0  0
   10.0415    1.4802   -0.0000 O   0  0  0  0  0  0  0  0  0  0  0  0
    9.9941    3.9076   -0.0000 C   0  0  0  0  0  0  0  0  0  0  0  0
   11.4506    1.9775   -0.0000 C   0  0  0  0  0  0  0  0  0  0  0  0
   11.4151    3.4814   -0.0000 C   0  0  0  0  0  0  0  0  0  0  0  0
  1  2  1  0  0  0  0
  1  3  1  0  0  0  0
  2  4  2  0  0  0  0
  2  5  1  0  0  0  0
  3  6  2  0  0  0  0
  3  7  1  0  0  0  0
  4  8  1  0  0  0  0
  5  9  2  0  0  0  0
  6 10  1  0  0  0  0
  6 11  1  0  0  0  0
  7 12  2  0  0  0  0
  8 13  1  0  0  0  0
  8 14  2  0  0  0  0
  9 15  1  0  0  0  0
 10 16  1  0  0  0  0
 11 17  2  0  0  0  0
 13 18  1  0  0  0  0
 13 19  1  0  0  0  0
 14 20  1  0  0  0  0
 15 21  1  0  0  0  0
 16 22  1  0  0  0  0
 18 23  1  0  0  0  0
 19 24  1  0  0  0  0
 20 25  1  0  0  0  0
 22 26  2  0  0  0  0
 22 27  1  0  0  0  0
 23 28  1  0  0  0  0
 27 29  1  0  0  0  0
 29 30  1  0  0  0  0
 30 31  1  0  0  0  0
 30 32  2  0  0  0  0
 31 33  1  0  0  0  0
 32 34  1  0  0  0  0
  5  7  1  0  0  0  0
  9 14  1  0  0  0  0
 12 17  1  0  0  0  0
 21 25  1  0  0  0  0
 24 28  1  0  0  0  0
 33 34  2  0  0  0  0
M  END
>  <MolRegNo>
1145372

>  <m>
=

>  <Value>
90720

>  <Unit>
nM

>  <Type>
IC50

>  <Ligand Efficiency>
0.16

>  <Binding Efficiency>
8.16

>  <Surface Efficiency>
4.33

>  <Assay Index>
589666

>  <Assay Category>


>  <Assay Organism>
SARS coronavirus

>  <Target ID>
101075

>  <Target Name>
Replicase polyprotein 1ab

>  <Target Organism>
SARS coronavirus

>  <Target Description>
Target is a single protein chain

>  <Sequence Accession>
P0C6X7

>  <Reference>
Bioorg. Med. Chem. Lett. 21 (10), 3088-3091 (2011)

>  <Pubmed ID>
21470860

>  <DOI>
10.1016/j.bmcl.2011.03.034

>  <InChI-Key>
FRBXCVPWEKEFKO-UHFFFAOYSA-N

>  <Molecular Formula>
C24H25N5O3S2

>  <Monoisotopic Mass>
495.139880

>  <Druglikeness>
-2.3032

$$$$
Compound 168
Actelion Java MolfileCreator 1.0

 34 39  0  0  0  0  0  0  0  0999 V2000
    0.0000   -0.0000   -0.0000 S   0  0  0  0  0  0  0  0  0  0  0  0
   -1.4446   -0.4618   -0.0000 C   0  0  0  0  0  0  0  0  0  0  0  0
    0.8763   -1.1960   -0.0000 C   0  0  0  0  0  0  0  0  0  0  0  0
   -2.7472    0.3079   -0.0000 N   0  0  0  0  0  0  0  0  0  0  0  0
   -1.4446   -1.9538   -0.0000 C   0  0  0  0  0  0  0  0  0  0  0  0
    2.3564   -1.3262   -0.0000 C   0  0  0  0  0  0  0  0  0  0  0  0
   -0.0118   -2.4038   -0.0000 C   0  0  0  0  0  0  0  0  0  0  0  0
   -4.0497   -0.4381   -0.0000 C   0  0  0  0  0  0  0  0  0  0  0  0
   -2.7590   -2.6880   -0.0000 C   0  0  0  0  0  0  0  0  0  0  0  0
    3.2208   -0.0947   -0.0000 S   0  0  0  0  0  0  0  0  0  0  0  0
    2.9603   -2.6880   -0.0000 N   0  0  0  0  0  0  0  0  0  0  0  0
    0.5802   -3.7537   -0.0000 N   0  0  0  0  0  0  0  0  0  0  0  0
   -5.3641    0.3197   -0.0000 N   0  0  0  0  0  0  0  0  0  0  0  0
   -4.0616   -1.9301   -0.0000 C   0  0  0  0  0  0  0  0  0  0  0  0
   -2.7590   -4.1682   -0.0000 C   0  0  0  0  0  0  0  0  0  0  0  0
    4.7129   -0.0592   -0.0000 C   0  0  0  0  0  0  0  0  0  0  0  0
    2.0722   -3.8958   -0.0000 C   0  0  0  0  0  0  0  0  0  0  0  0
   -5.3878    1.8354   -0.0000 C   0  0  0  0  0  0  0  0  0  0  0  0
   -6.6785   -0.4263   -0.0000 C   0  0  0  0  0  0  0  0  0  0  0  0
   -5.3523   -2.6643   -0.0000 C   0  0  0  0  0  0  0  0  0  0  0  0
   -4.0616   -4.9023   -0.0000 C   0  0  0  0  0  0  0  0  0  0  0  0
    5.4352    1.2670   -0.0000 C   0  0  0  0  0  0  0  0  0  0  0  0
   -6.6904    2.5933   -0.0000 C   0  0  0  0  0  0  0  0  0  0  0  0
   -7.9929    0.3434   -0.0000 C   0  0  0  0  0  0  0  0  0  0  0  0
   -5.3641   -4.1445   -0.0000 C   0  0  0  0  0  0  0  0  0  0  0  0
    4.6537    2.5696   -0.0000 O   0  0  0  0  0  0  0  0  0  0  0  0
    6.9272    1.3025   -0.0000 N   0  0  0  0  0  0  0  0  0  0  0  0
   -8.0048    1.8591   -0.0000 O   0  0  0  0  0  0  0  0  0  0  0  0
    7.6495    2.6288   -0.0000 C   0  0  0  0  0  0  0  0  0  0  0  0
    9.1415    2.6643   -0.0000 C   0  0  0  0  0  0  0  0  0  0  0  0
   10.0415    1.4802   -0.0000 O   0  0  0  0  0  0  0  0  0  0  0  0
    9.9941    3.9076   -0.0000 C   0  0  0  0  0  0  0  0  0  0  0  0
   11.4506    1.9775   -0.0000 C   0  0  0  0  0  0  0  0  0  0  0  0
   11.4151    3.4814   -0.0000 C   0  0  0  0  0  0  0  0  0  0  0  0
  1  2  1  0  0  0  0
  1  3  1  0  0  0  0
  2  4  2  0  0  0  0
  2  5  1  0  0  0  0
  3  6  2  0  0  0  0
  3  7  1  0  0  0  0
  4  8  1  0  0  0  0
  5  9  2  0  0  0  0
  6 10  1  0  0  0  0
  6 11  1  0  0  0  0
  7 12  2  0  0  0  0
  8 13  1  0  0  0  0
  8 14  2  0  0  0  0
  9 15  1  0  0  0  0
 10 16  1  0  0  0  0
 11 17  2  0  0  0  0
 13 18  1  0  0  0  0
 13 19  1  0  0  0  0
 14 20  1  0  0  0  0
 15 21  1  0  0  0  0
 16 22  1  0  0  0  0
 18 23  1  0  0  0  0
 19 24  1  0  0  0  0
 20 25  1  0  0  0  0
 22 26  2  0  0  0  0
 22 27  1  0  0  0  0
 23 28  1  0  0  0  0
 27 29  1  0  0  0  0
 29 30  1  0  0  0  0
 30 31  1  0  0  0  0
 30 32  2  0  0  0  0
 31 33  1  0  0  0  0
 32 34  1  0  0  0  0
  5  7  1  0  0  0  0
  9 14  1  0  0  0  0
 12 17  1  0  0  0  0
 21 25  1  0  0  0  0
 24 28  1  0  0  0  0
 33 34  2  0  0  0  0
M  END
>  <MolRegNo>
1145372

>  <m>
=

>  <Value>
53.27

>  <Unit>
%

>  <Type>
Inhibition

>  <Ligand Efficiency>


>  <Binding Efficiency>


>  <Surface Efficiency>


>  <Assay Index>
589665

>  <Assay Category>


>  <Assay Organism>
SARS coronavirus

>  <Target ID>
101075

>  <Target Name>
Replicase polyprotein 1ab

>  <Target Organism>
SARS coronavirus

>  <Target Description>
Target is a single protein chain

>  <Sequence Accession>
P0C6X7

>  <Reference>
Bioorg. Med. Chem. Lett. 21 (10), 3088-3091 (2011)

>  <Pubmed ID>
21470860

>  <DOI>
10.1016/j.bmcl.2011.03.034

>  <InChI-Key>
FRBXCVPWEKEFKO-UHFFFAOYSA-N

>  <Molecular Formula>
C24H25N5O3S2

>  <Monoisotopic Mass>
495.139880

>  <Druglikeness>
-2.3032

$$$$
Compound 169
Actelion Java MolfileCreator 1.0

 22 24  0  0  0  0  0  0  0  0999 V2000
    0.0000   -0.0000   -0.0000 S   0  0  0  0  0  0  0  0  0  0  0  0
   -1.2167   -0.8741   -0.0000 C   0  0  0  0  0  0  0  0  0  0  0  0
    1.1930   -0.8741   -0.0000 C   0  0  0  0  0  0  0  0  0  0  0  0
   -2.6578   -0.3898   -0.0000 C   0  0  0  0  0  0  0  0  0  0  0  0
   -0.7796   -2.2916   -0.0000 C   0  0  0  0  0  0  0  0  0  0  0  0
    0.7087   -2.2916   -0.0000 C   0  0  0  0  0  0  0  0  0  0  0  0
    2.6105   -0.4016   -0.0000 C   0  0  0  0  0  0  0  0  0  0  0  0
   -3.8863   -1.2521   -0.0000 S   0  0  0  0  0  0  0  0  0  0  0  0
   -3.1303    1.0631   -0.0000 C   0  0  0  0  0  0  0  0  0  0  0  0
    3.7091   -1.3939   -0.0000 N   0  0  0  0  0  0  0  0  0  0  0  0
   -5.1147   -0.3544   -0.0000 C   0  0  0  0  0  0  0  0  0  0  0  0
   -4.6423    1.0749   -0.0000 C   0  0  0  0  0  0  0  0  0  0  0  0
    5.1266   -0.9214   -0.0000 C   0  0  0  0  0  0  0  0  0  0  0  0
    6.3196   -1.7955   -0.0000 N   0  0  0  0  0  0  0  0  0  0  0  0
    5.5754    0.5197   -0.0000 C   0  0  0  0  0  0  0  0  0  0  0  0
    7.5245   -0.9096   -0.0000 N   0  0  0  0  0  0  0  0  0  0  0  0
    6.2960   -3.2838   -0.0000 C   0  0  0  0  0  0  0  0  0  0  0  0
    4.6777    1.7482   -0.0000 N   0  0  0  0  0  0  0  0  0  0  0  0
    7.0638    0.5197   -0.0000 C   0  0  0  0  0  0  0  0  0  0  0  0
    3.1775    1.6065   -0.0000 O   0  0  0  0  0  0  0  0  0  0  0  0
    5.2801    3.1303   -0.0000 O   0  0  0  0  0  0  0  0  0  0  0  0
    7.9379    1.7364   -0.0000 C   0  0  0  0  0  0  0  0  0  0  0  0
  1  2  1  0  0  0  0
  1  3  1  0  0  0  0
  2  4  1  0  0  0  0
  2  5  2  0  0  0  0
  3  6  2  0  0  0  0
  3  7  1  0  0  0  0
  4  8  1  0  0  0  0
  4  9  2  0  0  0  0
  7 10  1  0  0  0  0
  8 11  1  0  0  0  0
  9 12  1  0  0  0  0
 10 13  1  0  0  0  0
 13 14  1  0  0  0  0
 13 15  2  0  0  0  0
 14 16  1  0  0  0  0
 14 17  1  0  0  0  0
 15 18  1  0  0  0  0
 15 19  1  0  0  0  0
 18 20  2  0  0  0  0
 18 21  1  0  0  0  0
 19 22  1  0  0  0  0
  5  6  1  0  0  0  0
 11 12  2  0  0  0  0
 16 19  2  0  0  0  0
M  CHG  2  18   1  21  -1
M  END
>  <MolRegNo>
356373

>  <m>
=

>  <Value>
20000

>  <Unit>
nM

>  <Type>
IC50

>  <Ligand Efficiency>
0.29

>  <Binding Efficiency>
14.05

>  <Surface Efficiency>
6.44

>  <Assay Index>
266027

>  <Assay Category>


>  <Assay Organism>
SARS coronavirus

>  <Target ID>
20012

>  <Target Name>
SARS coronavirus 3C-like proteinase

>  <Target Organism>
SARS coronavirus

>  <Target Description>
Target is a single protein chain

>  <Sequence Accession>
P0C6U8

>  <Reference>
J. Med. Chem. 49 (17), 5154-5161 (2006)

>  <Pubmed ID>
16913704

>  <DOI>
10.1021/jm060207o

>  <InChI-Key>
FRQPWTXXDABLQI-UHFFFAOYSA-N

>  <Molecular Formula>
C14H14N4O2S2

>  <Monoisotopic Mass>
334.055816

>  <Druglikeness>
0.105

$$$$
Compound 170
Actelion Java MolfileCreator 1.0

 13 14  0  0  0  0  0  0  0  0999 V2000
    0.0000   -0.0000   -0.0000 I   0  0  0  0  0  0  0  0  0  0  0  0
    1.3331   -0.7023   -0.0000 C   0  0  0  0  0  0  0  0  0  0  0  0
    2.6543    0.0714   -0.0000 C   0  0  0  0  0  0  0  0  0  0  0  0
    1.3212   -2.1901   -0.0000 C   0  0  0  0  0  0  0  0  0  0  0  0
    3.9398   -0.6785   -0.0000 C   0  0  0  0  0  0  0  0  0  0  0  0
    2.6424   -2.9281   -0.0000 C   0  0  0  0  0  0  0  0  0  0  0  0
    5.3562   -0.2023   -0.0000 C   0  0  0  0  0  0  0  0  0  0  0  0
    3.9279   -2.1663   -0.0000 C   0  0  0  0  0  0  0  0  0  0  0  0
    5.8204    1.2498   -0.0000 O   0  0  0  0  0  0  0  0  0  0  0  0
    6.2251   -1.4045   -0.0000 C   0  0  0  0  0  0  0  0  0  0  0  0
    5.3443   -2.6186   -0.0000 N   0  0  0  0  0  0  0  0  0  0  0  0
    7.7249   -1.4164   -0.0000 O   0  0  0  0  0  0  0  0  0  0  0  0
    5.8085   -4.0469   -0.0000 C   0  0  0  0  0  0  0  0  0  0  0  0
  1  2  1  0  0  0  0
  2  3  2  0  0  0  0
  2  4  1  0  0  0  0
  3  5  1  0  0  0  0
  4  6  2  0  0  0  0
  5  7  1  0  0  0  0
  5  8  2  0  0  0  0
  7  9  2  0  0  0  0
  7 10  1  0  0  0  0
  8 11  1  0  0  0  0
 10 12  2  0  0  0  0
 11 13  1  0  0  0  0
  6  8  1  0  0  0  0
 10 11  1  0  0  0  0
M  END
>  <MolRegNo>
96598

>  <m>
<

>  <Value>
25

>  <Unit>
%

>  <Type>
Inhibition

>  <Ligand Efficiency>


>  <Binding Efficiency>


>  <Surface Efficiency>


>  <Assay Index>
262887

>  <Assay Category>


>  <Assay Organism>
SARS coronavirus

>  <Target ID>
20012

>  <Target Name>
SARS coronavirus 3C-like proteinase

>  <Target Organism>
SARS coronavirus

>  <Target Description>
Target is a single protein chain

>  <Sequence Accession>
P0C6U8

>  <Reference>
J. Med. Chem. 49 (12), 3440-3443 (2006)

>  <Pubmed ID>
16759084

>  <DOI>
10.1021/jm0602357

>  <InChI-Key>
FVRVCKWJOSBBDD-UHFFFAOYSA-N

>  <Molecular Formula>
C9H6NO2I

>  <Monoisotopic Mass>
286.944327

>  <Druglikeness>
0.055769

$$$$
Compound 171
Actelion Java MolfileCreator 1.0

 20 21  0  0  0  0  0  0  0  0999 V2000
    0.0000   -0.0000   -0.0000 O   0  0  0  0  0  0  0  0  0  0  0  0
    0.0000   -1.4957   -0.0000 C   0  0  0  0  0  0  0  0  0  0  0  0
    1.3042   -2.2256   -0.0000 C   0  0  0  0  0  0  0  0  0  0  0  0
   -1.3042   -2.2375   -0.0000 C   0  0  0  0  0  0  0  0  0  0  0  0
    2.5965   -1.4478   -0.0000 C   0  0  0  0  0  0  0  0  0  0  0  0
    1.2923   -3.7332   -0.0000 C   0  0  0  0  0  0  0  0  0  0  0  0
   -1.3162   -3.7332   -0.0000 C   0  0  0  0  0  0  0  0  0  0  0  0
    3.8888   -2.1897   -0.0000 C   0  0  0  0  0  0  0  0  0  0  0  0
    2.5726    0.0598   -0.0000 C   0  0  0  0  0  0  0  0  0  0  0  0
   -0.0359   -4.4751   -0.0000 C   0  0  0  0  0  0  0  0  0  0  0  0
    5.1810   -1.4239   -0.0000 C   0  0  0  0  0  0  0  0  0  0  0  0
    3.8529    0.8376   -0.0000 C   0  0  0  0  0  0  0  0  0  0  0  0
   -0.0479   -5.9708   -0.0000 C   0  0  0  0  0  0  0  0  0  0  0  0
    5.1571    0.0957   -0.0000 C   0  0  0  0  0  0  0  0  0  0  0  0
    6.4733   -2.1658   -0.0000 C   0  0  0  0  0  0  0  0  0  0  0  0
    1.2444   -6.7126   -0.0000 C   0  0  0  0  0  0  0  0  0  0  0  0
    6.4494    0.8735   -0.0000 O   0  0  0  0  0  0  0  0  0  0  0  0
    7.7656   -1.3880   -0.0000 C   0  0  0  0  0  0  0  0  0  0  0  0
    1.2324   -8.2083   -0.0000 C   0  0  0  0  0  0  0  0  0  0  0  0
    9.0579   -2.1299   -0.0000 C   0  0  0  0  0  0  0  0  0  0  0  0
  1  2  1  0  0  0  0
  2  3  2  0  0  0  0
  2  4  1  0  0  0  0
  3  5  1  0  0  0  0
  3  6  1  0  0  0  0
  4  7  2  0  0  0  0
  5  8  2  0  0  0  0
  5  9  1  0  0  0  0
  6 10  2  0  0  0  0
  8 11  1  0  0  0  0
  9 12  2  0  0  0  0
 10 13  1  0  0  0  0
 11 14  2  0  0  0  0
 11 15  1  0  0  0  0
 13 16  1  0  0  0  0
 14 17  1  0  0  0  0
 15 18  1  0  0  0  0
 16 19  2  0  0  0  0
 18 20  2  0  0  0  0
  7 10  1  0  0  0  0
 12 14  1  0  0  0  0
M  END
>  <MolRegNo>
18078

>  <m>


>  <Value>
0

>  <Unit>


>  <Type>
Activity

>  <Ligand Efficiency>


>  <Binding Efficiency>


>  <Surface Efficiency>


>  <Assay Index>
294025

>  <Assay Category>


>  <Assay Organism>
SARS coronavirus

>  <Target ID>
100499

>  <Target Name>
SARS coronavirus

>  <Target Organism>
SARS coronavirus

>  <Target Description>
Target is a complete organism

>  <Sequence Accession>


>  <Reference>
J. Med. Chem. 50 (17), 4087-4095 (2007)

>  <Pubmed ID>
17663539

>  <DOI>
10.1021/jm070295s

>  <InChI-Key>
FVYXIJYOAGAUQK-UHFFFAOYSA-N

>  <Molecular Formula>
C18H18O2

>  <Monoisotopic Mass>
266.130680

>  <Druglikeness>
-4.9267

$$$$
Compound 172
Actelion Java MolfileCreator 1.0

 20 21  0  0  0  0  0  0  0  0999 V2000
    0.0000   -0.0000   -0.0000 O   0  0  0  0  0  0  0  0  0  0  0  0
    0.0000   -1.4957   -0.0000 C   0  0  0  0  0  0  0  0  0  0  0  0
    1.3042   -2.2256   -0.0000 C   0  0  0  0  0  0  0  0  0  0  0  0
   -1.3042   -2.2375   -0.0000 C   0  0  0  0  0  0  0  0  0  0  0  0
    2.5965   -1.4478   -0.0000 C   0  0  0  0  0  0  0  0  0  0  0  0
    1.2923   -3.7332   -0.0000 C   0  0  0  0  0  0  0  0  0  0  0  0
   -1.3162   -3.7332   -0.0000 C   0  0  0  0  0  0  0  0  0  0  0  0
    3.8888   -2.1897   -0.0000 C   0  0  0  0  0  0  0  0  0  0  0  0
    2.5726    0.0598   -0.0000 C   0  0  0  0  0  0  0  0  0  0  0  0
   -0.0359   -4.4751   -0.0000 C   0  0  0  0  0  0  0  0  0  0  0  0
    5.1810   -1.4239   -0.0000 C   0  0  0  0  0  0  0  0  0  0  0  0
    3.8529    0.8376   -0.0000 C   0  0  0  0  0  0  0  0  0  0  0  0
   -0.0479   -5.9708   -0.0000 C   0  0  0  0  0  0  0  0  0  0  0  0
    5.1571    0.0957   -0.0000 C   0  0  0  0  0  0  0  0  0  0  0  0
    6.4733   -2.1658   -0.0000 C   0  0  0  0  0  0  0  0  0  0  0  0
    1.2444   -6.7126   -0.0000 C   0  0  0  0  0  0  0  0  0  0  0  0
    6.4494    0.8735   -0.0000 O   0  0  0  0  0  0  0  0  0  0  0  0
    7.7656   -1.3880   -0.0000 C   0  0  0  0  0  0  0  0  0  0  0  0
    1.2324   -8.2083   -0.0000 C   0  0  0  0  0  0  0  0  0  0  0  0
    9.0579   -2.1299   -0.0000 C   0  0  0  0  0  0  0  0  0  0  0  0
  1  2  1  0  0  0  0
  2  3  2  0  0  0  0
  2  4  1  0  0  0  0
  3  5  1  0  0  0  0
  3  6  1  0  0  0  0
  4  7  2  0  0  0  0
  5  8  2  0  0  0  0
  5  9  1  0  0  0  0
  6 10  2  0  0  0  0
  8 11  1  0  0  0  0
  9 12  2  0  0  0  0
 10 13  1  0  0  0  0
 11 14  2  0  0  0  0
 11 15  1  0  0  0  0
 13 16  1  0  0  0  0
 14 17  1  0  0  0  0
 15 18  1  0  0  0  0
 16 19  2  0  0  0  0
 18 20  2  0  0  0  0
  7 10  1  0  0  0  0
 12 14  1  0  0  0  0
M  END
>  <MolRegNo>
18078

>  <m>
=

>  <Value>
6500

>  <Unit>
nM

>  <Type>
EC50

>  <Ligand Efficiency>


>  <Binding Efficiency>


>  <Surface Efficiency>


>  <Assay Index>
294026

>  <Assay Category>


>  <Assay Organism>
SARS coronavirus

>  <Target ID>
100499

>  <Target Name>
SARS coronavirus

>  <Target Organism>
SARS coronavirus

>  <Target Description>
Target is a complete organism

>  <Sequence Accession>


>  <Reference>
J. Med. Chem. 50 (17), 4087-4095 (2007)

>  <Pubmed ID>
17663539

>  <DOI>
10.1021/jm070295s

>  <InChI-Key>
FVYXIJYOAGAUQK-UHFFFAOYSA-N

>  <Molecular Formula>
C18H18O2

>  <Monoisotopic Mass>
266.130680

>  <Druglikeness>
-4.9267

$$$$
Compound 173
Actelion Java MolfileCreator 1.0

 20 21  0  0  0  0  0  0  0  0999 V2000
    0.0000   -0.0000   -0.0000 O   0  0  0  0  0  0  0  0  0  0  0  0
    0.0000   -1.4957   -0.0000 C   0  0  0  0  0  0  0  0  0  0  0  0
    1.3042   -2.2256   -0.0000 C   0  0  0  0  0  0  0  0  0  0  0  0
   -1.3042   -2.2375   -0.0000 C   0  0  0  0  0  0  0  0  0  0  0  0
    2.5965   -1.4478   -0.0000 C   0  0  0  0  0  0  0  0  0  0  0  0
    1.2923   -3.7332   -0.0000 C   0  0  0  0  0  0  0  0  0  0  0  0
   -1.3162   -3.7332   -0.0000 C   0  0  0  0  0  0  0  0  0  0  0  0
    3.8888   -2.1897   -0.0000 C   0  0  0  0  0  0  0  0  0  0  0  0
    2.5726    0.0598   -0.0000 C   0  0  0  0  0  0  0  0  0  0  0  0
   -0.0359   -4.4751   -0.0000 C   0  0  0  0  0  0  0  0  0  0  0  0
    5.1810   -1.4239   -0.0000 C   0  0  0  0  0  0  0  0  0  0  0  0
    3.8529    0.8376   -0.0000 C   0  0  0  0  0  0  0  0  0  0  0  0
   -0.0479   -5.9708   -0.0000 C   0  0  0  0  0  0  0  0  0  0  0  0
    5.1571    0.0957   -0.0000 C   0  0  0  0  0  0  0  0  0  0  0  0
    6.4733   -2.1658   -0.0000 C   0  0  0  0  0  0  0  0  0  0  0  0
    1.2444   -6.7126   -0.0000 C   0  0  0  0  0  0  0  0  0  0  0  0
    6.4494    0.8735   -0.0000 O   0  0  0  0  0  0  0  0  0  0  0  0
    7.7656   -1.3880   -0.0000 C   0  0  0  0  0  0  0  0  0  0  0  0
    1.2324   -8.2083   -0.0000 C   0  0  0  0  0  0  0  0  0  0  0  0
    9.0579   -2.1299   -0.0000 C   0  0  0  0  0  0  0  0  0  0  0  0
  1  2  1  0  0  0  0
  2  3  2  0  0  0  0
  2  4  1  0  0  0  0
  3  5  1  0  0  0  0
  3  6  1  0  0  0  0
  4  7  2  0  0  0  0
  5  8  2  0  0  0  0
  5  9  1  0  0  0  0
  6 10  2  0  0  0  0
  8 11  1  0  0  0  0
  9 12  2  0  0  0  0
 10 13  1  0  0  0  0
 11 14  2  0  0  0  0
 11 15  1  0  0  0  0
 13 16  1  0  0  0  0
 14 17  1  0  0  0  0
 15 18  1  0  0  0  0
 16 19  2  0  0  0  0
 18 20  2  0  0  0  0
  7 10  1  0  0  0  0
 12 14  1  0  0  0  0
M  END
>  <MolRegNo>
18078

>  <m>
<

>  <Value>
25

>  <Unit>
%

>  <Type>
Inhibition

>  <Ligand Efficiency>


>  <Binding Efficiency>


>  <Surface Efficiency>


>  <Assay Index>
294022

>  <Assay Category>


>  <Assay Organism>
SARS coronavirus

>  <Target ID>
100499

>  <Target Name>
SARS coronavirus

>  <Target Organism>
SARS coronavirus

>  <Target Description>
Target is a complete organism

>  <Sequence Accession>


>  <Reference>
J. Med. Chem. 50 (17), 4087-4095 (2007)

>  <Pubmed ID>
17663539

>  <DOI>
10.1021/jm070295s

>  <InChI-Key>
FVYXIJYOAGAUQK-UHFFFAOYSA-N

>  <Molecular Formula>
C18H18O2

>  <Monoisotopic Mass>
266.130680

>  <Druglikeness>
-4.9267

$$$$
Compound 174
Actelion Java MolfileCreator 1.0

 20 21  0  0  0  0  0  0  0  0999 V2000
    0.0000   -0.0000   -0.0000 O   0  0  0  0  0  0  0  0  0  0  0  0
    0.0000   -1.4957   -0.0000 C   0  0  0  0  0  0  0  0  0  0  0  0
    1.3042   -2.2256   -0.0000 C   0  0  0  0  0  0  0  0  0  0  0  0
   -1.3042   -2.2375   -0.0000 C   0  0  0  0  0  0  0  0  0  0  0  0
    2.5965   -1.4478   -0.0000 C   0  0  0  0  0  0  0  0  0  0  0  0
    1.2923   -3.7332   -0.0000 C   0  0  0  0  0  0  0  0  0  0  0  0
   -1.3162   -3.7332   -0.0000 C   0  0  0  0  0  0  0  0  0  0  0  0
    3.8888   -2.1897   -0.0000 C   0  0  0  0  0  0  0  0  0  0  0  0
    2.5726    0.0598   -0.0000 C   0  0  0  0  0  0  0  0  0  0  0  0
   -0.0359   -4.4751   -0.0000 C   0  0  0  0  0  0  0  0  0  0  0  0
    5.1810   -1.4239   -0.0000 C   0  0  0  0  0  0  0  0  0  0  0  0
    3.8529    0.8376   -0.0000 C   0  0  0  0  0  0  0  0  0  0  0  0
   -0.0479   -5.9708   -0.0000 C   0  0  0  0  0  0  0  0  0  0  0  0
    5.1571    0.0957   -0.0000 C   0  0  0  0  0  0  0  0  0  0  0  0
    6.4733   -2.1658   -0.0000 C   0  0  0  0  0  0  0  0  0  0  0  0
    1.2444   -6.7126   -0.0000 C   0  0  0  0  0  0  0  0  0  0  0  0
    6.4494    0.8735   -0.0000 O   0  0  0  0  0  0  0  0  0  0  0  0
    7.7656   -1.3880   -0.0000 C   0  0  0  0  0  0  0  0  0  0  0  0
    1.2324   -8.2083   -0.0000 C   0  0  0  0  0  0  0  0  0  0  0  0
    9.0579   -2.1299   -0.0000 C   0  0  0  0  0  0  0  0  0  0  0  0
  1  2  1  0  0  0  0
  2  3  2  0  0  0  0
  2  4  1  0  0  0  0
  3  5  1  0  0  0  0
  3  6  1  0  0  0  0
  4  7  2  0  0  0  0
  5  8  2  0  0  0  0
  5  9  1  0  0  0  0
  6 10  2  0  0  0  0
  8 11  1  0  0  0  0
  9 12  2  0  0  0  0
 10 13  1  0  0  0  0
 11 14  2  0  0  0  0
 11 15  1  0  0  0  0
 13 16  1  0  0  0  0
 14 17  1  0  0  0  0
 15 18  1  0  0  0  0
 16 19  2  0  0  0  0
 18 20  2  0  0  0  0
  7 10  1  0  0  0  0
 12 14  1  0  0  0  0
M  END
>  <MolRegNo>
18078

>  <m>
<

>  <Value>
25

>  <Unit>
%

>  <Type>
Inhibition

>  <Ligand Efficiency>


>  <Binding Efficiency>


>  <Surface Efficiency>


>  <Assay Index>
294023

>  <Assay Category>


>  <Assay Organism>
SARS coronavirus

>  <Target ID>
100499

>  <Target Name>
SARS coronavirus

>  <Target Organism>
SARS coronavirus

>  <Target Description>
Target is a complete organism

>  <Sequence Accession>


>  <Reference>
J. Med. Chem. 50 (17), 4087-4095 (2007)

>  <Pubmed ID>
17663539

>  <DOI>
10.1021/jm070295s

>  <InChI-Key>
FVYXIJYOAGAUQK-UHFFFAOYSA-N

>  <Molecular Formula>
C18H18O2

>  <Monoisotopic Mass>
266.130680

>  <Druglikeness>
-4.9267

$$$$
Compound 175
Actelion Java MolfileCreator 1.0

 20 21  0  0  0  0  0  0  0  0999 V2000
    0.0000   -0.0000   -0.0000 O   0  0  0  0  0  0  0  0  0  0  0  0
    0.0000   -1.4957   -0.0000 C   0  0  0  0  0  0  0  0  0  0  0  0
    1.3042   -2.2256   -0.0000 C   0  0  0  0  0  0  0  0  0  0  0  0
   -1.3042   -2.2375   -0.0000 C   0  0  0  0  0  0  0  0  0  0  0  0
    2.5965   -1.4478   -0.0000 C   0  0  0  0  0  0  0  0  0  0  0  0
    1.2923   -3.7332   -0.0000 C   0  0  0  0  0  0  0  0  0  0  0  0
   -1.3162   -3.7332   -0.0000 C   0  0  0  0  0  0  0  0  0  0  0  0
    3.8888   -2.1897   -0.0000 C   0  0  0  0  0  0  0  0  0  0  0  0
    2.5726    0.0598   -0.0000 C   0  0  0  0  0  0  0  0  0  0  0  0
   -0.0359   -4.4751   -0.0000 C   0  0  0  0  0  0  0  0  0  0  0  0
    5.1810   -1.4239   -0.0000 C   0  0  0  0  0  0  0  0  0  0  0  0
    3.8529    0.8376   -0.0000 C   0  0  0  0  0  0  0  0  0  0  0  0
   -0.0479   -5.9708   -0.0000 C   0  0  0  0  0  0  0  0  0  0  0  0
    5.1571    0.0957   -0.0000 C   0  0  0  0  0  0  0  0  0  0  0  0
    6.4733   -2.1658   -0.0000 C   0  0  0  0  0  0  0  0  0  0  0  0
    1.2444   -6.7126   -0.0000 C   0  0  0  0  0  0  0  0  0  0  0  0
    6.4494    0.8735   -0.0000 O   0  0  0  0  0  0  0  0  0  0  0  0
    7.7656   -1.3880   -0.0000 C   0  0  0  0  0  0  0  0  0  0  0  0
    1.2324   -8.2083   -0.0000 C   0  0  0  0  0  0  0  0  0  0  0  0
    9.0579   -2.1299   -0.0000 C   0  0  0  0  0  0  0  0  0  0  0  0
  1  2  1  0  0  0  0
  2  3  2  0  0  0  0
  2  4  1  0  0  0  0
  3  5  1  0  0  0  0
  3  6  1  0  0  0  0
  4  7  2  0  0  0  0
  5  8  2  0  0  0  0
  5  9  1  0  0  0  0
  6 10  2  0  0  0  0
  8 11  1  0  0  0  0
  9 12  2  0  0  0  0
 10 13  1  0  0  0  0
 11 14  2  0  0  0  0
 11 15  1  0  0  0  0
 13 16  1  0  0  0  0
 14 17  1  0  0  0  0
 15 18  1  0  0  0  0
 16 19  2  0  0  0  0
 18 20  2  0  0  0  0
  7 10  1  0  0  0  0
 12 14  1  0  0  0  0
M  END
>  <MolRegNo>
18078

>  <m>
=

>  <Value>
25

>  <Unit>
%

>  <Type>
Inhibition

>  <Ligand Efficiency>


>  <Binding Efficiency>


>  <Surface Efficiency>


>  <Assay Index>
294024

>  <Assay Category>


>  <Assay Organism>
SARS coronavirus

>  <Target ID>
100499

>  <Target Name>
SARS coronavirus

>  <Target Organism>
SARS coronavirus

>  <Target Description>
Target is a complete organism

>  <Sequence Accession>


>  <Reference>
J. Med. Chem. 50 (17), 4087-4095 (2007)

>  <Pubmed ID>
17663539

>  <DOI>
10.1021/jm070295s

>  <InChI-Key>
FVYXIJYOAGAUQK-UHFFFAOYSA-N

>  <Molecular Formula>
C18H18O2

>  <Monoisotopic Mass>
266.130680

>  <Druglikeness>
-4.9267

$$$$
Compound 176
Actelion Java MolfileCreator 1.0

 29 33  0  0  0  0  0  0  0  0999 V2000
    0.0000   -0.0000   -0.0000 S   0  0  0  0  0  0  0  0  0  0  0  0
   -1.5124   -0.0000   -0.0000 C   0  0  0  0  0  0  0  0  0  0  0  0
    0.4644   -1.4052   -0.0000 C   0  0  0  0  0  0  0  0  0  0  0  0
   -1.9768   -1.4171   -0.0000 N   0  0  0  0  0  0  0  0  0  0  0  0
   -2.4056    1.2147   -0.0000 N   0  0  0  0  0  0  0  0  0  0  0  0
   -0.7502   -2.2746   -0.0000 C   0  0  0  0  0  0  0  0  0  0  0  0
   -0.7502   -3.7632   -0.0000 C   0  0  0  0  0  0  0  0  0  0  0  0
   -2.1317   -4.3705   -0.0000 S   0  0  0  0  0  0  0  0  0  0  0  0
   -3.3583   -3.4893   -0.0000 C   0  0  0  0  0  0  0  0  0  0  0  0
   -3.3821   -1.9768   -0.0000 N   0  0  0  0  0  0  0  0  0  0  0  0
   -4.7873   -3.9418   -0.0000 N   0  0  0  0  0  0  0  0  0  0  0  0
   -4.8230   -1.5124   -0.0000 N   0  0  0  0  0  0  0  0  0  0  0  0
   -4.8111   -5.4185   -0.0000 C   0  0  0  0  0  0  0  0  0  0  0  0
   -5.6805   -2.7152   -0.0000 C   0  0  0  0  0  0  0  0  0  0  0  0
   -6.1211   -6.1330   -0.0000 C   0  0  0  0  0  0  0  0  0  0  0  0
   -3.5488   -6.1568   -0.0000 C   0  0  0  0  0  0  0  0  0  0  0  0
   -7.1929   -2.7152   -0.0000 C   0  0  0  0  0  0  0  0  0  0  0  0
   -6.1449   -7.6097   -0.0000 C   0  0  0  0  0  0  0  0  0  0  0  0
   -3.5726   -7.6335   -0.0000 C   0  0  0  0  0  0  0  0  0  0  0  0
   -7.9550   -1.4052   -0.0000 C   0  0  0  0  0  0  0  0  0  0  0  0
   -7.9431   -4.0013   -0.0000 C   0  0  0  0  0  0  0  0  0  0  0  0
   -4.8707   -8.3599   -0.0000 C   0  0  0  0  0  0  0  0  0  0  0  0
   -9.4793   -1.4171   -0.0000 C   0  0  0  0  0  0  0  0  0  0  0  0
   -7.2405   -0.0834   -0.0000 C   0  0  0  0  0  0  0  0  0  0  0  0
   -9.4555   -4.0013   -0.0000 C   0  0  0  0  0  0  0  0  0  0  0  0
  -10.2177   -2.7033   -0.0000 C   0  0  0  0  0  0  0  0  0  0  0  0
  -10.2772   -0.1191   -0.0000 C   0  0  0  0  0  0  0  0  0  0  0  0
   -8.0265    1.2266   -0.0000 C   0  0  0  0  0  0  0  0  0  0  0  0
   -9.5508    1.2147   -0.0000 C   0  0  0  0  0  0  0  0  0  0  0  0
  1  2  1  0  0  0  0
  1  3  1  0  0  0  0
  2  4  2  0  0  0  0
  2  5  1  0  0  0  0
  3  6  2  0  0  0  0
  6  7  1  0  0  0  0
  7  8  1  0  0  0  0
  8  9  1  0  0  0  0
  9 10  2  0  0  0  0
  9 11  1  0  0  0  0
 10 12  1  0  0  0  0
 11 13  1  0  0  0  0
 11 14  1  0  0  0  0
 13 15  2  0  0  0  0
 13 16  1  0  0  0  0
 14 17  1  0  0  0  0
 15 18  1  0  0  0  0
 16 19  2  0  0  0  0
 17 20  1  0  0  0  0
 17 21  2  0  0  0  0
 18 22  2  0  0  0  0
 20 23  1  0  0  0  0
 20 24  2  0  0  0  0
 21 25  1  0  0  0  0
 23 26  1  0  0  0  0
 23 27  2  0  0  0  0
 24 28  1  0  0  0  0
 27 29  1  0  0  0  0
  4  6  1  0  0  0  0
 12 14  2  0  0  0  0
 19 22  1  0  0  0  0
 25 26  2  0  0  0  0
 28 29  2  0  0  0  0
M  END
>  <MolRegNo>
1145368

>  <m>
=

>  <Value>
58350

>  <Unit>
nM

>  <Type>
IC50

>  <Ligand Efficiency>
0.20

>  <Binding Efficiency>
10.19

>  <Surface Efficiency>
6.08

>  <Assay Index>
589666

>  <Assay Category>


>  <Assay Organism>
SARS coronavirus

>  <Target ID>
101075

>  <Target Name>
Replicase polyprotein 1ab

>  <Target Organism>
SARS coronavirus

>  <Target Description>
Target is a single protein chain

>  <Sequence Accession>
P0C6X7

>  <Reference>
Bioorg. Med. Chem. Lett. 21 (10), 3088-3091 (2011)

>  <Pubmed ID>
21470860

>  <DOI>
10.1016/j.bmcl.2011.03.034

>  <InChI-Key>
FWUJPPXHEKWVQA-UHFFFAOYSA-N

>  <Molecular Formula>
C22H17N5S2

>  <Monoisotopic Mass>
415.092535

>  <Druglikeness>
4.4265

$$$$
Compound 177
Actelion Java MolfileCreator 1.0

 29 33  0  0  0  0  0  0  0  0999 V2000
    0.0000   -0.0000   -0.0000 S   0  0  0  0  0  0  0  0  0  0  0  0
   -1.5124   -0.0000   -0.0000 C   0  0  0  0  0  0  0  0  0  0  0  0
    0.4644   -1.4052   -0.0000 C   0  0  0  0  0  0  0  0  0  0  0  0
   -1.9768   -1.4171   -0.0000 N   0  0  0  0  0  0  0  0  0  0  0  0
   -2.4056    1.2147   -0.0000 N   0  0  0  0  0  0  0  0  0  0  0  0
   -0.7502   -2.2746   -0.0000 C   0  0  0  0  0  0  0  0  0  0  0  0
   -0.7502   -3.7632   -0.0000 C   0  0  0  0  0  0  0  0  0  0  0  0
   -2.1317   -4.3705   -0.0000 S   0  0  0  0  0  0  0  0  0  0  0  0
   -3.3583   -3.4893   -0.0000 C   0  0  0  0  0  0  0  0  0  0  0  0
   -3.3821   -1.9768   -0.0000 N   0  0  0  0  0  0  0  0  0  0  0  0
   -4.7873   -3.9418   -0.0000 N   0  0  0  0  0  0  0  0  0  0  0  0
   -4.8230   -1.5124   -0.0000 N   0  0  0  0  0  0  0  0  0  0  0  0
   -4.8111   -5.4185   -0.0000 C   0  0  0  0  0  0  0  0  0  0  0  0
   -5.6805   -2.7152   -0.0000 C   0  0  0  0  0  0  0  0  0  0  0  0
   -6.1211   -6.1330   -0.0000 C   0  0  0  0  0  0  0  0  0  0  0  0
   -3.5488   -6.1568   -0.0000 C   0  0  0  0  0  0  0  0  0  0  0  0
   -7.1929   -2.7152   -0.0000 C   0  0  0  0  0  0  0  0  0  0  0  0
   -6.1449   -7.6097   -0.0000 C   0  0  0  0  0  0  0  0  0  0  0  0
   -3.5726   -7.6335   -0.0000 C   0  0  0  0  0  0  0  0  0  0  0  0
   -7.9550   -1.4052   -0.0000 C   0  0  0  0  0  0  0  0  0  0  0  0
   -7.9431   -4.0013   -0.0000 C   0  0  0  0  0  0  0  0  0  0  0  0
   -4.8707   -8.3599   -0.0000 C   0  0  0  0  0  0  0  0  0  0  0  0
   -9.4793   -1.4171   -0.0000 C   0  0  0  0  0  0  0  0  0  0  0  0
   -7.2405   -0.0834   -0.0000 C   0  0  0  0  0  0  0  0  0  0  0  0
   -9.4555   -4.0013   -0.0000 C   0  0  0  0  0  0  0  0  0  0  0  0
  -10.2177   -2.7033   -0.0000 C   0  0  0  0  0  0  0  0  0  0  0  0
  -10.2772   -0.1191   -0.0000 C   0  0  0  0  0  0  0  0  0  0  0  0
   -8.0265    1.2266   -0.0000 C   0  0  0  0  0  0  0  0  0  0  0  0
   -9.5508    1.2147   -0.0000 C   0  0  0  0  0  0  0  0  0  0  0  0
  1  2  1  0  0  0  0
  1  3  1  0  0  0  0
  2  4  2  0  0  0  0
  2  5  1  0  0  0  0
  3  6  2  0  0  0  0
  6  7  1  0  0  0  0
  7  8  1  0  0  0  0
  8  9  1  0  0  0  0
  9 10  2  0  0  0  0
  9 11  1  0  0  0  0
 10 12  1  0  0  0  0
 11 13  1  0  0  0  0
 11 14  1  0  0  0  0
 13 15  2  0  0  0  0
 13 16  1  0  0  0  0
 14 17  1  0  0  0  0
 15 18  1  0  0  0  0
 16 19  2  0  0  0  0
 17 20  1  0  0  0  0
 17 21  2  0  0  0  0
 18 22  2  0  0  0  0
 20 23  1  0  0  0  0
 20 24  2  0  0  0  0
 21 25  1  0  0  0  0
 23 26  1  0  0  0  0
 23 27  2  0  0  0  0
 24 28  1  0  0  0  0
 27 29  1  0  0  0  0
  4  6  1  0  0  0  0
 12 14  2  0  0  0  0
 19 22  1  0  0  0  0
 25 26  2  0  0  0  0
 28 29  2  0  0  0  0
M  END
>  <MolRegNo>
1145368

>  <m>
=

>  <Value>
58.23

>  <Unit>
%

>  <Type>
Inhibition

>  <Ligand Efficiency>


>  <Binding Efficiency>


>  <Surface Efficiency>


>  <Assay Index>
589665

>  <Assay Category>


>  <Assay Organism>
SARS coronavirus

>  <Target ID>
101075

>  <Target Name>
Replicase polyprotein 1ab

>  <Target Organism>
SARS coronavirus

>  <Target Description>
Target is a single protein chain

>  <Sequence Accession>
P0C6X7

>  <Reference>
Bioorg. Med. Chem. Lett. 21 (10), 3088-3091 (2011)

>  <Pubmed ID>
21470860

>  <DOI>
10.1016/j.bmcl.2011.03.034

>  <InChI-Key>
FWUJPPXHEKWVQA-UHFFFAOYSA-N

>  <Molecular Formula>
C22H17N5S2

>  <Monoisotopic Mass>
415.092535

>  <Druglikeness>
4.4265

$$$$
Compound 178
Actelion Java MolfileCreator 1.0

 13 13  0  0  1  0  0  0  0  0999 V2000
    0.0000   -0.0000   -0.0000 O   0  0  0  0  0  0  0  0  0  0  0  0
   -0.0118    1.5060   -0.0000 C   0  0  0  0  0  0  0  0  0  0  0  0
    1.2707    2.2590   -0.0000 O   0  0  0  0  0  0  0  0  0  0  0  0
   -1.3177    2.2707   -0.0000 C   0  0  0  0  0  0  0  0  0  0  0  0
    2.5531    1.5177   -0.0000 C   0  0  0  0  0  0  0  0  0  0  0  0
   -2.0707    3.5767   -0.0000 N   0  0  0  0  0  0  0  0  0  0  0  0
   -2.8237    2.2825   -0.0000 C   0  0  0  0  0  0  0  0  0  0  0  0
   -2.0825    5.0826   -0.0000 C   0  0  0  0  0  0  0  0  0  0  0  0
   -3.3884    5.8356   -0.0000 C   0  0  0  0  0  0  0  0  0  0  0  0
   -0.8000    5.8356   -0.0000 C   0  0  0  0  0  0  0  0  0  0  0  0
   -4.6944    5.0944   -0.0000 O   0  0  0  0  0  0  0  0  0  0  0  0
   -3.4002    7.3416   -0.0000 O   0  0  0  0  0  0  0  0  0  0  0  0
   -2.1178    8.1063   -0.0000 C   0  0  0  0  0  0  0  0  0  0  0  0
  1  2  2  0  0  0  0
  2  3  1  0  0  0  0
  2  4  1  0  0  0  0
  3  5  1  0  0  0  0
  4  6  1  0  0  0  0
  4  7  1  0  0  0  0
  8  6  1  6  0  0  0
  8  9  1  0  0  0  0
  8 10  1  0  0  0  0
  9 11  2  0  0  0  0
  9 12  1  0  0  0  0
 12 13  1  0  0  0  0
  6  7  1  0  0  0  0
M  END
>  <MolRegNo>
333672

>  <m>
=

>  <Value>
39

>  <Unit>
%

>  <Type>
Inhibition

>  <Ligand Efficiency>


>  <Binding Efficiency>


>  <Surface Efficiency>


>  <Assay Index>
254531

>  <Assay Category>


>  <Assay Organism>
SARS coronavirus

>  <Target ID>
20012

>  <Target Name>
SARS coronavirus 3C-like proteinase

>  <Target Organism>
SARS coronavirus

>  <Target Description>
Target is a single protein chain

>  <Sequence Accession>
P0C6U8

>  <Reference>
Bioorg. Med. Chem. Lett. 15 (24), 5365-5369 (2005)

>  <Pubmed ID>
16216498

>  <DOI>
10.1016/j.bmcl.2005.09.012

>  <InChI-Key>
FXMLKVDNSKCHDD-YXDJQVONSA-N

>  <Molecular Formula>
C8H13NO4

>  <Monoisotopic Mass>
187.084459

>  <Druglikeness>
-0.9758

$$$$
Compound 179
Actelion Java MolfileCreator 1.0

 35 39  0  0  0  0  0  0  0  0999 V2000
    0.0000   -0.0000   -0.0000 O   0  0  0  0  0  0  0  0  0  0  0  0
   -1.1839    0.3866   -0.0000 C   0  0  0  0  0  0  0  0  0  0  0  0
   -2.4402   -0.5074   -0.0000 N   0  0  0  0  0  0  0  0  0  0  0  0
   -1.6792    1.8362   -0.0000 C   0  0  0  0  0  0  0  0  0  0  0  0
   -3.6966    0.4107   -0.0000 N   0  0  0  0  0  0  0  0  0  0  0  0
   -2.4523   -2.0295   -0.0000 C   0  0  0  0  0  0  0  0  0  0  0  0
   -3.2134    1.8604   -0.0000 C   0  0  0  0  0  0  0  0  0  0  0  0
   -0.7973    3.0926   -0.0000 C   0  0  0  0  0  0  0  0  0  0  0  0
   -1.1960   -2.8751   -0.0000 C   0  0  0  0  0  0  0  0  0  0  0  0
   -3.8536   -2.6818   -0.0000 C   0  0  0  0  0  0  0  0  0  0  0  0
   -4.1194    3.1167   -0.0000 C   0  0  0  0  0  0  0  0  0  0  0  0
    0.7127    2.9476   -0.0000 C   0  0  0  0  0  0  0  0  0  0  0  0
   -1.3168   -4.3973   -0.0000 C   0  0  0  0  0  0  0  0  0  0  0  0
   -3.9744   -4.2040   -0.0000 C   0  0  0  0  0  0  0  0  0  0  0  0
   -3.6120    4.5664   -0.0000 C   0  0  0  0  0  0  0  0  0  0  0  0
   -5.6415    2.8510   -0.0000 C   0  0  0  0  0  0  0  0  0  0  0  0
    1.7275    4.0952   -0.0000 O   0  0  0  0  0  0  0  0  0  0  0  0
    1.4738    1.6309   -0.0000 C   0  0  0  0  0  0  0  0  0  0  0  0
   -2.7060   -5.0496   -0.0000 C   0  0  0  0  0  0  0  0  0  0  0  0
   -4.6147    5.7503   -0.0000 C   0  0  0  0  0  0  0  0  0  0  0  0
   -6.6442    4.0348   -0.0000 C   0  0  0  0  0  0  0  0  0  0  0  0
    3.0926    3.4791   -0.0000 C   0  0  0  0  0  0  0  0  0  0  0  0
    2.9597    1.9691   -0.0000 C   0  0  0  0  0  0  0  0  0  0  0  0
   -2.8268   -6.5717   -0.0000 C   0  0  0  0  0  0  0  0  0  0  0  0
   -6.1368    5.4845   -0.0000 C   0  0  0  0  0  0  0  0  0  0  0  0
    4.4093    4.2523   -0.0000 C   0  0  0  0  0  0  0  0  0  0  0  0
   -2.9355   -7.7798   -0.0000 N   0  0  0  0  0  0  0  0  0  0  0  0
    5.7261    3.5033   -0.0000 C   0  0  0  0  0  0  0  0  0  0  0  0
    4.3973    5.7986   -0.0000 C   0  0  0  0  0  0  0  0  0  0  0  0
    5.7140    1.9812   -0.0000 C   0  0  0  0  0  0  0  0  0  0  0  0
    7.0429    4.2765   -0.0000 C   0  0  0  0  0  0  0  0  0  0  0  0
    5.7140    6.5717   -0.0000 C   0  0  0  0  0  0  0  0  0  0  0  0
    6.7650    1.3772   -0.0000 O   0  0  0  0  0  0  0  0  0  0  0  0
    4.6389    1.3772   -0.0000 O   0  0  0  0  0  0  0  0  0  0  0  0
    7.0308    5.8227   -0.0000 C   0  0  0  0  0  0  0  0  0  0  0  0
  1  2  2  0  0  0  0
  2  3  1  0  0  0  0
  2  4  1  0  0  0  0
  3  5  1  0  0  0  0
  3  6  1  0  0  0  0
  4  7  1  0  0  0  0
  4  8  2  0  0  0  0
  6  9  2  0  0  0  0
  6 10  1  0  0  0  0
  7 11  1  0  0  0  0
  8 12  1  0  0  0  0
  9 13  1  0  0  0  0
 10 14  2  0  0  0  0
 11 15  2  0  0  0  0
 11 16  1  0  0  0  0
 12 17  1  0  0  0  0
 12 18  2  0  0  0  0
 13 19  2  0  0  0  0
 15 20  1  0  0  0  0
 16 21  2  0  0  0  0
 17 22  1  0  0  0  0
 18 23  1  0  0  0  0
 19 24  1  0  0  0  0
 20 25  2  0  0  0  0
 22 26  1  0  0  0  0
 24 27  3  0  0  0  0
 26 28  2  0  0  0  0
 26 29  1  0  0  0  0
 28 30  1  0  0  0  0
 28 31  1  0  0  0  0
 29 32  2  0  0  0  0
 30 33  2  0  0  0  0
 30 34  1  0  0  0  0
 31 35  2  0  0  0  0
  5  7  2  0  0  0  0
 14 19  1  0  0  0  0
 21 25  1  0  0  0  0
 22 23  2  0  0  0  0
 32 35  1  0  0  0  0
M  END
>  <MolRegNo>
2087680

>  <m>
=

>  <Value>
18700

>  <Unit>
nM

>  <Type>
IC50

>  <Ligand Efficiency>
0.18

>  <Binding Efficiency>
10.29

>  <Surface Efficiency>
4.42

>  <Assay Index>
1017144

>  <Assay Category>


>  <Assay Organism>
SARS coronavirus

>  <Target ID>
101075

>  <Target Name>
Replicase polyprotein 1ab

>  <Target Organism>
SARS coronavirus

>  <Target Description>
Target is a single protein chain

>  <Sequence Accession>
P0C6X7

>  <Reference>
Bioorg. Med. Chem. 24 (13), 3035-3042 (2016)

>  <Pubmed ID>
27240464

>  <DOI>
10.1016/j.bmc.2016.05.013

>  <InChI-Key>
FZYKSLVCMHDYQR-UHFFFAOYSA-N

>  <Molecular Formula>
C28H17N3O4

>  <Monoisotopic Mass>
459.121907

>  <Druglikeness>
0.69033

$$$$
Compound 180
Actelion Java MolfileCreator 1.0

 18 19  0  0  0  0  0  0  0  0999 V2000
    0.0000   -0.0000   -0.0000 O   0  0  0  0  0  0  0  0  0  0  0  0
   -1.5013    0.0117   -0.0000 C   0  0  0  0  0  0  0  0  0  0  0  0
   -2.3926   -1.1963   -0.0000 N   0  0  0  0  0  0  0  0  0  0  0  0
   -2.3926    1.2432   -0.0000 C   0  0  0  0  0  0  0  0  0  0  0  0
   -3.8352   -0.7272   -0.0000 C   0  0  0  0  0  0  0  0  0  0  0  0
   -1.9469   -2.6037   -0.0000 C   0  0  0  0  0  0  0  0  0  0  0  0
   -1.9469    2.6741   -0.0000 O   0  0  0  0  0  0  0  0  0  0  0  0
   -3.8352    0.7858   -0.0000 C   0  0  0  0  0  0  0  0  0  0  0  0
   -5.1371   -1.4661   -0.0000 C   0  0  0  0  0  0  0  0  0  0  0  0
   -0.5043   -2.8970   -0.0000 C   0  0  0  0  0  0  0  0  0  0  0  0
   -5.1488    1.5364   -0.0000 C   0  0  0  0  0  0  0  0  0  0  0  0
   -6.4390   -0.7037   -0.0000 C   0  0  0  0  0  0  0  0  0  0  0  0
   -0.0586   -4.3044   -0.0000 C   0  0  0  0  0  0  0  0  0  0  0  0
   -6.4390    0.7975   -0.0000 C   0  0  0  0  0  0  0  0  0  0  0  0
   -7.7409    1.5482   -0.0000 C   0  0  0  0  0  0  0  0  0  0  0  0
   -7.7526    3.0494   -0.0000 O   0  0  0  0  0  0  0  0  0  0  0  0
   -9.0427    0.8093   -0.0000 O   0  0  0  0  0  0  0  0  0  0  0  0
  -10.3446    1.5599   -0.0000 C   0  0  0  0  0  0  0  0  0  0  0  0
  1  2  2  0  0  0  0
  2  3  1  0  0  0  0
  2  4  1  0  0  0  0
  3  5  1  0  0  0  0
  3  6  1  0  0  0  0
  4  7  2  0  0  0  0
  4  8  1  0  0  0  0
  5  9  1  0  0  0  0
  6 10  1  0  0  0  0
  8 11  1  0  0  0  0
  9 12  2  0  0  0  0
 10 13  1  0  0  0  0
 11 14  2  0  0  0  0
 14 15  1  0  0  0  0
 15 16  2  0  0  0  0
 15 17  1  0  0  0  0
 17 18  1  0  0  0  0
  5  8  2  0  0  0  0
 12 14  1  0  0  0  0
M  END
>  <MolRegNo>
349171

>  <m>
<

>  <Value>
25

>  <Unit>
%

>  <Type>
Inhibition

>  <Ligand Efficiency>


>  <Binding Efficiency>


>  <Surface Efficiency>


>  <Assay Index>
262887

>  <Assay Category>


>  <Assay Organism>
SARS coronavirus

>  <Target ID>
20012

>  <Target Name>
SARS coronavirus 3C-like proteinase

>  <Target Organism>
SARS coronavirus

>  <Target Description>
Target is a single protein chain

>  <Sequence Accession>
P0C6U8

>  <Reference>
J. Med. Chem. 49 (12), 3440-3443 (2006)

>  <Pubmed ID>
16759084

>  <DOI>
10.1021/jm0602357

>  <InChI-Key>
FZYRAOYAYPHAMW-UHFFFAOYSA-N

>  <Molecular Formula>
C13H13NO4

>  <Monoisotopic Mass>
247.084459

>  <Druglikeness>
-1.9483

$$$$
Compound 181
Actelion Java MolfileCreator 1.0

 31 33  0  0  0  0  0  0  0  0999 V2000
    0.0000   -0.0000   -0.0000 S   0  0  0  0  0  0  0  0  0  0  0  0
    1.2848   -0.7376   -0.0000 C   0  0  0  0  0  0  0  0  0  0  0  0
   -1.3086   -0.7376   -0.0000 C   0  0  0  0  0  0  0  0  0  0  0  0
    1.2610   -2.2246   -0.0000 N   0  0  0  0  0  0  0  0  0  0  0  0
    2.5576    0.0357   -0.0000 N   0  0  0  0  0  0  0  0  0  0  0  0
   -2.6171    0.0238   -0.0000 C   0  0  0  0  0  0  0  0  0  0  0  0
    2.5458   -2.9621   -0.0000 C   0  0  0  0  0  0  0  0  0  0  0  0
    3.8424   -0.6900   -0.0000 C   0  0  0  0  0  0  0  0  0  0  0  0
   -2.6290    1.5346   -0.0000 O   0  0  0  0  0  0  0  0  0  0  0  0
   -3.9257   -0.7138   -0.0000 N   0  0  0  0  0  0  0  0  0  0  0  0
    2.5339   -4.4491   -0.0000 O   0  0  0  0  0  0  0  0  0  0  0  0
    3.8305   -2.2008   -0.0000 C   0  0  0  0  0  0  0  0  0  0  0  0
    5.1272    0.0833   -0.0000 C   0  0  0  0  0  0  0  0  0  0  0  0
   -5.2343    0.0476   -0.0000 C   0  0  0  0  0  0  0  0  0  0  0  0
    5.1153   -2.9383   -0.0000 C   0  0  0  0  0  0  0  0  0  0  0  0
    6.4120   -0.6543   -0.0000 C   0  0  0  0  0  0  0  0  0  0  0  0
    5.1034    1.5941   -0.0000 C   0  0  0  0  0  0  0  0  0  0  0  0
   -6.5547   -0.6900   -0.0000 C   0  0  0  0  0  0  0  0  0  0  0  0
   -5.2462    1.5703   -0.0000 C   0  0  0  0  0  0  0  0  0  0  0  0
    6.3882   -3.6759   -0.0000 N   0  0  0  0  0  0  0  0  0  0  0  0
    7.6967    0.1071   -0.0000 C   0  0  0  0  0  0  0  0  0  0  0  0
    6.4001    2.3554   -0.0000 C   0  0  0  0  0  0  0  0  0  0  0  0
   -7.8633    0.0714   -0.0000 C   0  0  0  0  0  0  0  0  0  0  0  0
   -6.5666   -2.1770   -0.0000 C   0  0  0  0  0  0  0  0  0  0  0  0
   -6.5666    2.3197   -0.0000 C   0  0  0  0  0  0  0  0  0  0  0  0
    7.6848    1.6179   -0.0000 C   0  0  0  0  0  0  0  0  0  0  0  0
   -7.8752    1.5822   -0.0000 C   0  0  0  0  0  0  0  0  0  0  0  0
   -9.1837    2.3435   -0.0000 C   0  0  0  0  0  0  0  0  0  0  0  0
   -9.1956    3.8543   -0.0000 C   0  0  0  0  0  0  0  0  0  0  0  0
  -10.5042    4.6157   -0.0000 C   0  0  0  0  0  0  0  0  0  0  0  0
  -10.5161    6.1265   -0.0000 C   0  0  0  0  0  0  0  0  0  0  0  0
  1  2  1  0  0  0  0
  1  3  1  0  0  0  0
  2  4  2  0  0  0  0
  2  5  1  0  0  0  0
  3  6  1  0  0  0  0
  4  7  1  0  0  0  0
  5  8  2  0  0  0  0
  6  9  2  0  0  0  0
  6 10  1  0  0  0  0
  7 11  1  0  0  0  0
  7 12  2  0  0  0  0
  8 13  1  0  0  0  0
 10 14  1  0  0  0  0
 12 15  1  0  0  0  0
 13 16  1  0  0  0  0
 13 17  1  0  0  0  0
 14 18  2  0  0  0  0
 14 19  1  0  0  0  0
 15 20  3  0  0  0  0
 16 21  1  0  0  0  0
 17 22  1  0  0  0  0
 18 23  1  0  0  0  0
 18 24  1  0  0  0  0
 19 25  2  0  0  0  0
 21 26  1  0  0  0  0
 23 27  2  0  0  0  0
 27 28  1  0  0  0  0
 28 29  1  0  0  0  0
 29 30  1  0  0  0  0
 30 31  1  0  0  0  0
  8 12  1  0  0  0  0
 22 26  1  0  0  0  0
 25 27  1  0  0  0  0
M  END
>  <MolRegNo>
348844

>  <m>
=

>  <Value>
4.8978e12

>  <Unit>
nM

>  <Type>
IC50

>  <Ligand Efficiency>


>  <Binding Efficiency>


>  <Surface Efficiency>


>  <Assay Index>
262926

>  <Assay Category>


>  <Assay Organism>
SARS coronavirus

>  <Target ID>
20012

>  <Target Name>
SARS coronavirus 3C-like proteinase

>  <Target Organism>
SARS coronavirus

>  <Target Description>
Target is a single protein chain

>  <Sequence Accession>
P0C6U8

>  <Reference>
J. Med. Chem. 49 (12), 3485-3495 (2006)

>  <Pubmed ID>
16759091

>  <DOI>
10.1021/jm050852f

>  <InChI-Key>
GBDKYZQJONYDPW-UHFFFAOYSA-N

>  <Molecular Formula>
C24H30N4O2S

>  <Monoisotopic Mass>
438.208946

>  <Druglikeness>
-11.904

$$$$
Compound 182
Actelion Java MolfileCreator 1.0

 31 33  0  0  0  0  0  0  0  0999 V2000
    0.0000   -0.0000   -0.0000 S   0  0  0  0  0  0  0  0  0  0  0  0
    1.2848   -0.7376   -0.0000 C   0  0  0  0  0  0  0  0  0  0  0  0
   -1.3086   -0.7376   -0.0000 C   0  0  0  0  0  0  0  0  0  0  0  0
    1.2610   -2.2246   -0.0000 N   0  0  0  0  0  0  0  0  0  0  0  0
    2.5576    0.0357   -0.0000 N   0  0  0  0  0  0  0  0  0  0  0  0
   -2.6171    0.0238   -0.0000 C   0  0  0  0  0  0  0  0  0  0  0  0
    2.5458   -2.9621   -0.0000 C   0  0  0  0  0  0  0  0  0  0  0  0
    3.8424   -0.6900   -0.0000 C   0  0  0  0  0  0  0  0  0  0  0  0
   -2.6290    1.5346   -0.0000 O   0  0  0  0  0  0  0  0  0  0  0  0
   -3.9257   -0.7138   -0.0000 N   0  0  0  0  0  0  0  0  0  0  0  0
    2.5339   -4.4491   -0.0000 O   0  0  0  0  0  0  0  0  0  0  0  0
    3.8305   -2.2008   -0.0000 C   0  0  0  0  0  0  0  0  0  0  0  0
    5.1272    0.0833   -0.0000 C   0  0  0  0  0  0  0  0  0  0  0  0
   -5.2343    0.0476   -0.0000 C   0  0  0  0  0  0  0  0  0  0  0  0
    5.1153   -2.9383   -0.0000 C   0  0  0  0  0  0  0  0  0  0  0  0
    6.4120   -0.6543   -0.0000 C   0  0  0  0  0  0  0  0  0  0  0  0
    5.1034    1.5941   -0.0000 C   0  0  0  0  0  0  0  0  0  0  0  0
   -6.5547   -0.6900   -0.0000 C   0  0  0  0  0  0  0  0  0  0  0  0
   -5.2462    1.5703   -0.0000 C   0  0  0  0  0  0  0  0  0  0  0  0
    6.3882   -3.6759   -0.0000 N   0  0  0  0  0  0  0  0  0  0  0  0
    7.6967    0.1071   -0.0000 C   0  0  0  0  0  0  0  0  0  0  0  0
    6.4001    2.3554   -0.0000 C   0  0  0  0  0  0  0  0  0  0  0  0
   -7.8633    0.0714   -0.0000 C   0  0  0  0  0  0  0  0  0  0  0  0
   -6.5666   -2.1770   -0.0000 C   0  0  0  0  0  0  0  0  0  0  0  0
   -6.5666    2.3197   -0.0000 C   0  0  0  0  0  0  0  0  0  0  0  0
    7.6848    1.6179   -0.0000 C   0  0  0  0  0  0  0  0  0  0  0  0
   -7.8752    1.5822   -0.0000 C   0  0  0  0  0  0  0  0  0  0  0  0
   -9.1837    2.3435   -0.0000 C   0  0  0  0  0  0  0  0  0  0  0  0
   -9.1956    3.8543   -0.0000 C   0  0  0  0  0  0  0  0  0  0  0  0
  -10.5042    4.6157   -0.0000 C   0  0  0  0  0  0  0  0  0  0  0  0
  -10.5161    6.1265   -0.0000 C   0  0  0  0  0  0  0  0  0  0  0  0
  1  2  1  0  0  0  0
  1  3  1  0  0  0  0
  2  4  2  0  0  0  0
  2  5  1  0  0  0  0
  3  6  1  0  0  0  0
  4  7  1  0  0  0  0
  5  8  2  0  0  0  0
  6  9  2  0  0  0  0
  6 10  1  0  0  0  0
  7 11  1  0  0  0  0
  7 12  2  0  0  0  0
  8 13  1  0  0  0  0
 10 14  1  0  0  0  0
 12 15  1  0  0  0  0
 13 16  1  0  0  0  0
 13 17  1  0  0  0  0
 14 18  2  0  0  0  0
 14 19  1  0  0  0  0
 15 20  3  0  0  0  0
 16 21  1  0  0  0  0
 17 22  1  0  0  0  0
 18 23  1  0  0  0  0
 18 24  1  0  0  0  0
 19 25  2  0  0  0  0
 21 26  1  0  0  0  0
 23 27  2  0  0  0  0
 27 28  1  0  0  0  0
 28 29  1  0  0  0  0
 29 30  1  0  0  0  0
 30 31  1  0  0  0  0
  8 12  1  0  0  0  0
 22 26  1  0  0  0  0
 25 27  1  0  0  0  0
M  END
>  <MolRegNo>
348844

>  <m>
=

>  <Value>
2.0e5

>  <Unit>
nM

>  <Type>
IC50

>  <Ligand Efficiency>


>  <Binding Efficiency>


>  <Surface Efficiency>


>  <Assay Index>
262926

>  <Assay Category>


>  <Assay Organism>
SARS coronavirus

>  <Target ID>
20012

>  <Target Name>
SARS coronavirus 3C-like proteinase

>  <Target Organism>
SARS coronavirus

>  <Target Description>
Target is a single protein chain

>  <Sequence Accession>
P0C6U8

>  <Reference>
J. Med. Chem. 49 (12), 3485-3495 (2006)

>  <Pubmed ID>
16759091

>  <DOI>
10.1021/jm050852f

>  <InChI-Key>
GBDKYZQJONYDPW-UHFFFAOYSA-N

>  <Molecular Formula>
C24H30N4O2S

>  <Monoisotopic Mass>
438.208946

>  <Druglikeness>
-11.904

$$$$
Compound 183
Actelion Java MolfileCreator 1.0

 14 15  0  0  0  0  0  0  0  0999 V2000
    0.0000   -0.0000   -0.0000 S   0  0  0  0  0  0  0  0  0  0  0  0
    1.3547    0.6298   -0.0000 C   0  0  0  0  0  0  0  0  0  0  0  0
   -1.0220    1.1289   -0.0000 C   0  0  0  0  0  0  0  0  0  0  0  0
    2.6500   -0.1069   -0.0000 C   0  0  0  0  0  0  0  0  0  0  0  0
    1.1883    2.1390   -0.0000 C   0  0  0  0  0  0  0  0  0  0  0  0
   -0.2852    2.4480   -0.0000 C   0  0  0  0  0  0  0  0  0  0  0  0
    2.6381   -1.6042   -0.0000 O   0  0  0  0  0  0  0  0  0  0  0  0
    3.9453    0.6536   -0.0000 N   0  0  0  0  0  0  0  0  0  0  0  0
    5.2405   -0.0832   -0.0000 C   0  0  0  0  0  0  0  0  0  0  0  0
    5.2286   -1.5805   -0.0000 N   0  0  0  0  0  0  0  0  0  0  0  0
    6.5239    0.6773   -0.0000 C   0  0  0  0  0  0  0  0  0  0  0  0
    6.5239   -2.3172   -0.0000 C   0  0  0  0  0  0  0  0  0  0  0  0
    7.8192   -0.0594   -0.0000 C   0  0  0  0  0  0  0  0  0  0  0  0
    7.8192   -1.5567   -0.0000 C   0  0  0  0  0  0  0  0  0  0  0  0
  1  2  1  0  0  0  0
  1  3  1  0  0  0  0
  2  4  1  0  0  0  0
  2  5  2  0  0  0  0
  3  6  2  0  0  0  0
  4  7  2  0  0  0  0
  4  8  1  0  0  0  0
  8  9  1  0  0  0  0
  9 10  2  0  0  0  0
  9 11  1  0  0  0  0
 10 12  1  0  0  0  0
 11 13  2  0  0  0  0
 12 14  2  0  0  0  0
  5  6  1  0  0  0  0
 13 14  1  0  0  0  0
M  END
>  <MolRegNo>
371789

>  <m>
<

>  <Value>
10

>  <Unit>
%

>  <Type>
Inhibition

>  <Ligand Efficiency>


>  <Binding Efficiency>


>  <Surface Efficiency>


>  <Assay Index>
278390

>  <Assay Category>


>  <Assay Organism>
SARS coronavirus

>  <Target ID>
20012

>  <Target Name>
SARS coronavirus 3C-like proteinase

>  <Target Organism>
SARS coronavirus

>  <Target Description>
Target is a single protein chain

>  <Sequence Accession>
P0C6U8

>  <Reference>
J. Med. Chem. 50 (8), 1850-1864 (2007)

>  <Pubmed ID>
17381079

>  <DOI>
10.1021/jm061425k

>  <InChI-Key>
GFDOUDIYCCVPDR-UHFFFAOYSA-N

>  <Molecular Formula>
C10H8N2OS

>  <Monoisotopic Mass>
204.035733

>  <Druglikeness>
3.2828

$$$$
Compound 184
Actelion Java MolfileCreator 1.0

 40 43  0  0  1  0  0  0  0  0999 V2000
    0.0000   -0.0000   -0.0000 O   0  0  0  0  0  0  0  0  0  0  0  0
   -1.3293    0.7359   -0.0000 C   0  0  0  0  0  0  0  0  0  0  0  0
   -1.3649    2.2550   -0.0000 O   0  0  0  0  0  0  0  0  0  0  0  0
   -2.6230   -0.0237   -0.0000 N   0  0  0  0  0  0  0  0  0  0  0  0
   -0.0949    3.0384   -0.0000 C   0  0  0  0  0  0  0  0  0  0  0  0
   -2.5992   -1.5073   -0.0000 C   0  0  0  0  0  0  0  0  0  0  0  0
    1.1750    3.8098   -0.0000 C   0  0  0  0  0  0  0  0  0  0  0  0
   -0.8901    4.3439   -0.0000 C   0  0  0  0  0  0  0  0  0  0  0  0
    0.6646    1.7684   -0.0000 C   0  0  0  0  0  0  0  0  0  0  0  0
   -3.9048   -2.2788   -0.0000 N   0  0  0  0  0  0  0  0  0  0  0  0
   -1.2937   -2.2194   -0.0000 C   0  0  0  0  0  0  0  0  0  0  0  0
   -5.2340   -1.5429   -0.0000 C   0  0  0  0  0  0  0  0  0  0  0  0
   -3.8810   -3.7742   -0.0000 C   0  0  0  0  0  0  0  0  0  0  0  0
   -0.0119   -1.4242   -0.0000 O   0  0  0  0  0  0  0  0  0  0  0  0
   -1.3174   -3.7149   -0.0000 N   0  0  0  0  0  0  0  0  0  0  0  0
   -6.5277   -2.3025   -0.0000 C   0  0  0  0  0  0  0  0  0  0  0  0
   -5.1866   -4.5338   -0.0000 C   0  0  0  0  0  0  0  0  0  0  0  0
   -0.5816   -5.0085   -0.0000 C   0  0  0  0  0  0  0  0  0  0  0  0
   -2.0770   -5.0085   -0.0000 C   0  0  0  0  0  0  0  0  0  0  0  0
   -6.5159   -3.7979   -0.0000 C   0  0  0  0  0  0  0  0  0  0  0  0
    0.7121   -5.7444   -0.0000 C   0  0  0  0  0  0  0  0  0  0  0  0
   -3.3944   -5.7563   -0.0000 C   0  0  0  0  0  0  0  0  0  0  0  0
    0.7121   -7.2398   -0.0000 O   0  0  0  0  0  0  0  0  0  0  0  0
    1.9939   -4.9729   -0.0000 O   0  0  0  0  0  0  0  0  0  0  0  0
   -4.7118   -4.9967   -0.0000 O   0  0  0  0  0  0  0  0  0  0  0  0
   -3.4063   -7.2517   -0.0000 O   0  0  0  0  0  0  0  0  0  0  0  0
    3.2876   -5.7088   -0.0000 C   0  0  0  0  0  0  0  0  0  0  0  0
   -4.7237   -7.9876   -0.0000 C   0  0  0  0  0  0  0  0  0  0  0  0
    4.5694   -4.9373   -0.0000 C   0  0  0  0  0  0  0  0  0  0  0  0
   -4.7356   -9.4830   -0.0000 C   0  0  0  0  0  0  0  0  0  0  0  0
    5.8631   -5.6732   -0.0000 C   0  0  0  0  0  0  0  0  0  0  0  0
    4.5457   -3.4300   -0.0000 C   0  0  0  0  0  0  0  0  0  0  0  0
   -6.0530  -10.2189   -0.0000 C   0  0  0  0  0  0  0  0  0  0  0  0
   -3.4538  -10.2189   -0.0000 C   0  0  0  0  0  0  0  0  0  0  0  0
    7.1449   -4.9017   -0.0000 C   0  0  0  0  0  0  0  0  0  0  0  0
    5.8275   -2.6586   -0.0000 C   0  0  0  0  0  0  0  0  0  0  0  0
   -6.0648  -11.7143   -0.0000 C   0  0  0  0  0  0  0  0  0  0  0  0
   -3.4538  -11.7024   -0.0000 C   0  0  0  0  0  0  0  0  0  0  0  0
    7.1212   -3.3825   -0.0000 C   0  0  0  0  0  0  0  0  0  0  0  0
   -4.7712  -12.4501   -0.0000 C   0  0  0  0  0  0  0  0  0  0  0  0
  1  2  2  0  0  0  0
  2  3  1  0  0  0  0
  2  4  1  0  0  0  0
  3  5  1  0  0  0  0
  6  4  1  6  0  0  0
  5  7  1  0  0  0  0
  5  8  1  0  0  0  0
  5  9  1  0  0  0  0
  6 10  1  0  0  0  0
  6 11  1  0  0  0  0
 10 12  1  0  0  0  0
 10 13  1  0  0  0  0
 11 14  2  0  0  0  0
 11 15  1  0  0  0  0
 12 16  1  0  0  0  0
 13 17  1  0  0  0  0
 15 18  1  0  0  0  0
 15 19  1  0  0  0  0
 16 20  1  0  0  0  0
 18 21  1  6  0  0  0
 19 22  1  1  0  0  0
 21 23  2  0  0  0  0
 21 24  1  0  0  0  0
 22 25  2  0  0  0  0
 22 26  1  0  0  0  0
 24 27  1  0  0  0  0
 26 28  1  0  0  0  0
 27 29  1  0  0  0  0
 28 30  1  0  0  0  0
 29 31  2  0  0  0  0
 29 32  1  0  0  0  0
 30 33  2  0  0  0  0
 30 34  1  0  0  0  0
 31 35  1  0  0  0  0
 32 36  2  0  0  0  0
 33 37  1  0  0  0  0
 34 38  2  0  0  0  0
 35 39  2  0  0  0  0
 37 40  2  0  0  0  0
 17 20  1  0  0  0  0
 18 19  1  0  0  0  0
 36 39  1  0  0  0  0
 38 40  1  0  0  0  0
M  END
>  <MolRegNo>
333467

>  <m>
=

>  <Value>
29

>  <Unit>
%

>  <Type>
Inhibition

>  <Ligand Efficiency>


>  <Binding Efficiency>


>  <Surface Efficiency>


>  <Assay Index>
254531

>  <Assay Category>


>  <Assay Organism>
SARS coronavirus

>  <Target ID>
20012

>  <Target Name>
SARS coronavirus 3C-like proteinase

>  <Target Organism>
SARS coronavirus

>  <Target Description>
Target is a single protein chain

>  <Sequence Accession>
P0C6U8

>  <Reference>
Bioorg. Med. Chem. Lett. 15 (24), 5365-5369 (2005)

>  <Pubmed ID>
16216498

>  <DOI>
10.1016/j.bmcl.2005.09.012

>  <InChI-Key>
GKGBVZBCZGFQAG-SDHSZQHLSA-N

>  <Molecular Formula>
C30H37N3O7

>  <Monoisotopic Mass>
551.263152

>  <Druglikeness>
-52.891

$$$$
Compound 185
Actelion Java MolfileCreator 1.0

 21 23  0  0  0  0  0  0  0  0999 V2000
    0.0000   -0.0000   -0.0000 O   0  0  0  0  0  0  0  0  0  0  0  0
    1.4887    0.0591   -0.0000 C   0  0  0  0  0  0  0  0  0  0  0  0
    2.3866   -1.1106   -0.0000 N   0  0  0  0  0  0  0  0  0  0  0  0
    2.3157    1.3233   -0.0000 C   0  0  0  0  0  0  0  0  0  0  0  0
    3.7807   -0.5789   -0.0000 C   0  0  0  0  0  0  0  0  0  0  0  0
    1.9613   -2.5284   -0.0000 C   0  0  0  0  0  0  0  0  0  0  0  0
    1.7840    2.7410   -0.0000 O   0  0  0  0  0  0  0  0  0  0  0  0
    3.7335    0.9216   -0.0000 C   0  0  0  0  0  0  0  0  0  0  0  0
    5.0922   -1.2878   -0.0000 C   0  0  0  0  0  0  0  0  0  0  0  0
    0.4962   -2.8828   -0.0000 C   0  0  0  0  0  0  0  0  0  0  0  0
    4.9977    1.7250   -0.0000 C   0  0  0  0  0  0  0  0  0  0  0  0
    6.3800   -0.4844   -0.0000 C   0  0  0  0  0  0  0  0  0  0  0  0
   -0.5671   -1.7959   -0.0000 C   0  0  0  0  0  0  0  0  0  0  0  0
    0.0709   -4.3242   -0.0000 C   0  0  0  0  0  0  0  0  0  0  0  0
    6.3091    1.0279   -0.0000 C   0  0  0  0  0  0  0  0  0  0  0  0
   -2.0322   -2.1503   -0.0000 C   0  0  0  0  0  0  0  0  0  0  0  0
   -1.3942   -4.6787   -0.0000 C   0  0  0  0  0  0  0  0  0  0  0  0
    7.5733    1.8431   -0.0000 C   0  0  0  0  0  0  0  0  0  0  0  0
   -2.4575   -3.5799   -0.0000 C   0  0  0  0  0  0  0  0  0  0  0  0
    7.5142    3.3554   -0.0000 O   0  0  0  0  0  0  0  0  0  0  0  0
    8.8848    1.1697   -0.0000 N   0  0  0  0  0  0  0  0  0  0  0  0
  1  2  2  0  0  0  0
  2  3  1  0  0  0  0
  2  4  1  0  0  0  0
  3  5  1  0  0  0  0
  3  6  1  0  0  0  0
  4  7  2  0  0  0  0
  4  8  1  0  0  0  0
  5  9  1  0  0  0  0
  6 10  1  0  0  0  0
  8 11  1  0  0  0  0
  9 12  2  0  0  0  0
 10 13  2  0  0  0  0
 10 14  1  0  0  0  0
 11 15  2  0  0  0  0
 13 16  1  0  0  0  0
 14 17  2  0  0  0  0
 15 18  1  0  0  0  0
 16 19  2  0  0  0  0
 18 20  2  0  0  0  0
 18 21  1  0  0  0  0
  5  8  2  0  0  0  0
 12 15  1  0  0  0  0
 17 19  1  0  0  0  0
M  END
>  <MolRegNo>
246346

>  <m>
=

>  <Value>
12500

>  <Unit>
nM

>  <Type>
IC50

>  <Ligand Efficiency>
0.32

>  <Binding Efficiency>
17.49

>  <Surface Efficiency>
6.09

>  <Assay Index>
262886

>  <Assay Category>


>  <Assay Organism>
SARS coronavirus

>  <Target ID>
20012

>  <Target Name>
SARS coronavirus 3C-like proteinase

>  <Target Organism>
SARS coronavirus

>  <Target Description>
Target is a single protein chain

>  <Sequence Accession>
P0C6U8

>  <Reference>
J. Med. Chem. 49 (12), 3440-3443 (2006)

>  <Pubmed ID>
16759084

>  <DOI>
10.1021/jm0602357

>  <InChI-Key>
GNHGMLHHGVQGSW-UHFFFAOYSA-N

>  <Molecular Formula>
C16H12N2O3

>  <Monoisotopic Mass>
280.084793

>  <Druglikeness>
0.42426

$$$$
Compound 186
Actelion Java MolfileCreator 1.0

 21 23  0  0  0  0  0  0  0  0999 V2000
    0.0000   -0.0000   -0.0000 O   0  0  0  0  0  0  0  0  0  0  0  0
    1.4887    0.0591   -0.0000 C   0  0  0  0  0  0  0  0  0  0  0  0
    2.3866   -1.1106   -0.0000 N   0  0  0  0  0  0  0  0  0  0  0  0
    2.3157    1.3233   -0.0000 C   0  0  0  0  0  0  0  0  0  0  0  0
    3.7807   -0.5789   -0.0000 C   0  0  0  0  0  0  0  0  0  0  0  0
    1.9613   -2.5284   -0.0000 C   0  0  0  0  0  0  0  0  0  0  0  0
    1.7840    2.7410   -0.0000 O   0  0  0  0  0  0  0  0  0  0  0  0
    3.7335    0.9216   -0.0000 C   0  0  0  0  0  0  0  0  0  0  0  0
    5.0922   -1.2878   -0.0000 C   0  0  0  0  0  0  0  0  0  0  0  0
    0.4962   -2.8828   -0.0000 C   0  0  0  0  0  0  0  0  0  0  0  0
    4.9977    1.7250   -0.0000 C   0  0  0  0  0  0  0  0  0  0  0  0
    6.3800   -0.4844   -0.0000 C   0  0  0  0  0  0  0  0  0  0  0  0
   -0.5671   -1.7959   -0.0000 C   0  0  0  0  0  0  0  0  0  0  0  0
    0.0709   -4.3242   -0.0000 C   0  0  0  0  0  0  0  0  0  0  0  0
    6.3091    1.0279   -0.0000 C   0  0  0  0  0  0  0  0  0  0  0  0
   -2.0322   -2.1503   -0.0000 C   0  0  0  0  0  0  0  0  0  0  0  0
   -1.3942   -4.6787   -0.0000 C   0  0  0  0  0  0  0  0  0  0  0  0
    7.5733    1.8431   -0.0000 C   0  0  0  0  0  0  0  0  0  0  0  0
   -2.4575   -3.5799   -0.0000 C   0  0  0  0  0  0  0  0  0  0  0  0
    7.5142    3.3554   -0.0000 O   0  0  0  0  0  0  0  0  0  0  0  0
    8.8848    1.1697   -0.0000 N   0  0  0  0  0  0  0  0  0  0  0  0
  1  2  2  0  0  0  0
  2  3  1  0  0  0  0
  2  4  1  0  0  0  0
  3  5  1  0  0  0  0
  3  6  1  0  0  0  0
  4  7  2  0  0  0  0
  4  8  1  0  0  0  0
  5  9  1  0  0  0  0
  6 10  1  0  0  0  0
  8 11  1  0  0  0  0
  9 12  2  0  0  0  0
 10 13  2  0  0  0  0
 10 14  1  0  0  0  0
 11 15  2  0  0  0  0
 13 16  1  0  0  0  0
 14 17  2  0  0  0  0
 15 18  1  0  0  0  0
 16 19  2  0  0  0  0
 18 20  2  0  0  0  0
 18 21  1  0  0  0  0
  5  8  2  0  0  0  0
 12 15  1  0  0  0  0
 17 19  1  0  0  0  0
M  END
>  <MolRegNo>
246346

>  <m>
=

>  <Value>
13000

>  <Unit>
nM

>  <Type>
Ki

>  <Ligand Efficiency>
0.32

>  <Binding Efficiency>
17.43

>  <Surface Efficiency>
6.07

>  <Assay Index>
262886

>  <Assay Category>


>  <Assay Organism>
SARS coronavirus

>  <Target ID>
20012

>  <Target Name>
SARS coronavirus 3C-like proteinase

>  <Target Organism>
SARS coronavirus

>  <Target Description>
Target is a single protein chain

>  <Sequence Accession>
P0C6U8

>  <Reference>
J. Med. Chem. 49 (12), 3440-3443 (2006)

>  <Pubmed ID>
16759084

>  <DOI>
10.1021/jm0602357

>  <InChI-Key>
GNHGMLHHGVQGSW-UHFFFAOYSA-N

>  <Molecular Formula>
C16H12N2O3

>  <Monoisotopic Mass>
280.084793

>  <Druglikeness>
0.42426

$$$$
Compound 187
Actelion Java MolfileCreator 1.0

 21 23  0  0  0  0  0  0  0  0999 V2000
    0.0000   -0.0000   -0.0000 O   0  0  0  0  0  0  0  0  0  0  0  0
    1.4887    0.0591   -0.0000 C   0  0  0  0  0  0  0  0  0  0  0  0
    2.3866   -1.1106   -0.0000 N   0  0  0  0  0  0  0  0  0  0  0  0
    2.3157    1.3233   -0.0000 C   0  0  0  0  0  0  0  0  0  0  0  0
    3.7807   -0.5789   -0.0000 C   0  0  0  0  0  0  0  0  0  0  0  0
    1.9613   -2.5284   -0.0000 C   0  0  0  0  0  0  0  0  0  0  0  0
    1.7840    2.7410   -0.0000 O   0  0  0  0  0  0  0  0  0  0  0  0
    3.7335    0.9216   -0.0000 C   0  0  0  0  0  0  0  0  0  0  0  0
    5.0922   -1.2878   -0.0000 C   0  0  0  0  0  0  0  0  0  0  0  0
    0.4962   -2.8828   -0.0000 C   0  0  0  0  0  0  0  0  0  0  0  0
    4.9977    1.7250   -0.0000 C   0  0  0  0  0  0  0  0  0  0  0  0
    6.3800   -0.4844   -0.0000 C   0  0  0  0  0  0  0  0  0  0  0  0
   -0.5671   -1.7959   -0.0000 C   0  0  0  0  0  0  0  0  0  0  0  0
    0.0709   -4.3242   -0.0000 C   0  0  0  0  0  0  0  0  0  0  0  0
    6.3091    1.0279   -0.0000 C   0  0  0  0  0  0  0  0  0  0  0  0
   -2.0322   -2.1503   -0.0000 C   0  0  0  0  0  0  0  0  0  0  0  0
   -1.3942   -4.6787   -0.0000 C   0  0  0  0  0  0  0  0  0  0  0  0
    7.5733    1.8431   -0.0000 C   0  0  0  0  0  0  0  0  0  0  0  0
   -2.4575   -3.5799   -0.0000 C   0  0  0  0  0  0  0  0  0  0  0  0
    7.5142    3.3554   -0.0000 O   0  0  0  0  0  0  0  0  0  0  0  0
    8.8848    1.1697   -0.0000 N   0  0  0  0  0  0  0  0  0  0  0  0
  1  2  2  0  0  0  0
  2  3  1  0  0  0  0
  2  4  1  0  0  0  0
  3  5  1  0  0  0  0
  3  6  1  0  0  0  0
  4  7  2  0  0  0  0
  4  8  1  0  0  0  0
  5  9  1  0  0  0  0
  6 10  1  0  0  0  0
  8 11  1  0  0  0  0
  9 12  2  0  0  0  0
 10 13  2  0  0  0  0
 10 14  1  0  0  0  0
 11 15  2  0  0  0  0
 13 16  1  0  0  0  0
 14 17  2  0  0  0  0
 15 18  1  0  0  0  0
 16 19  2  0  0  0  0
 18 20  2  0  0  0  0
 18 21  1  0  0  0  0
  5  8  2  0  0  0  0
 12 15  1  0  0  0  0
 17 19  1  0  0  0  0
M  END
>  <MolRegNo>
246346

>  <m>
=

>  <Value>
12589

>  <Unit>
nM

>  <Type>
Ki

>  <Ligand Efficiency>


>  <Binding Efficiency>


>  <Surface Efficiency>


>  <Assay Index>
262886

>  <Assay Category>


>  <Assay Organism>
SARS coronavirus

>  <Target ID>
20012

>  <Target Name>
SARS coronavirus 3C-like proteinase

>  <Target Organism>
SARS coronavirus

>  <Target Description>
Target is a single protein chain

>  <Sequence Accession>
P0C6U8

>  <Reference>
J. Med. Chem. 49 (12), 3440-3443 (2006)

>  <Pubmed ID>
16759084

>  <DOI>
10.1021/jm0602357

>  <InChI-Key>
GNHGMLHHGVQGSW-UHFFFAOYSA-N

>  <Molecular Formula>
C16H12N2O3

>  <Monoisotopic Mass>
280.084793

>  <Druglikeness>
0.42426

$$$$
Compound 188
Actelion Java MolfileCreator 1.0

 18 20  0  0  1  0  0  0  0  0999 V2000
    0.0000   -0.0000   -0.0000 Cl  0  0  0  0  0  0  0  0  0  0  0  0
   -1.2306   -0.8928   -0.0000 C   0  0  0  0  0  0  0  0  0  0  0  0
   -1.0859   -2.3286   -0.0000 N   0  0  0  0  0  0  0  0  0  0  0  0
   -2.6302   -0.2896   -0.0000 C   0  0  0  0  0  0  0  0  0  0  0  0
   -2.3286   -3.1731   -0.0000 C   0  0  0  0  0  0  0  0  0  0  0  0
   -3.1249    1.1100   -0.0000 N   0  0  0  0  0  0  0  0  0  0  0  0
   -3.8729   -1.1462   -0.0000 C   0  0  0  0  0  0  0  0  0  0  0  0
   -3.7402   -2.5699   -0.0000 N   0  0  0  0  0  0  0  0  0  0  0  0
   -4.6571    1.1221   -0.0000 C   0  0  0  0  0  0  0  0  0  0  0  0
   -5.1156   -0.2775   -0.0000 N   0  0  0  0  0  0  0  0  0  0  0  0
   -6.5755   -0.7239   -0.0000 C   0  0  0  0  0  0  0  0  0  0  0  0
   -7.8302    0.1448   -0.0000 O   0  0  0  0  0  0  0  0  0  0  0  0
   -7.0581   -2.0993   -0.0000 C   0  0  0  0  0  0  0  0  0  0  0  0
   -9.0729   -0.7118   -0.0000 C   0  0  0  0  0  0  0  0  0  0  0  0
   -6.1773   -3.3179   -0.0000 O   0  0  0  0  0  0  0  0  0  0  0  0
   -8.6024   -2.0873   -0.0000 C   0  0  0  0  0  0  0  0  0  0  0  0
  -10.5328   -0.2413   -0.0000 C   0  0  0  0  0  0  0  0  0  0  0  0
  -10.8706    1.1944   -0.0000 O   0  0  0  0  0  0  0  0  0  0  0  0
  1  2  1  0  0  0  0
  2  3  2  0  0  0  0
  2  4  1  0  0  0  0
  3  5  1  0  0  0  0
  4  6  1  0  0  0  0
  4  7  2  0  0  0  0
  5  8  2  0  0  0  0
  6  9  2  0  0  0  0
  7 10  1  0  0  0  0
 11 10  1  1  0  0  0
 11 12  1  0  0  0  0
 11 13  1  0  0  0  0
 12 14  1  0  0  0  0
 13 15  1  6  0  0  0
 13 16  1  0  0  0  0
 14 17  1  1  0  0  0
 17 18  1  0  0  0  0
  7  8  1  0  0  0  0
  9 10  1  0  0  0  0
 14 16  1  0  0  0  0
M  END
>  <MolRegNo>
386746

>  <m>
>

>  <Value>
3.0e5

>  <Unit>
nM

>  <Type>
IC50

>  <Ligand Efficiency>


>  <Binding Efficiency>


>  <Surface Efficiency>


>  <Assay Index>
287336

>  <Assay Category>


>  <Assay Organism>
SARS coronavirus

>  <Target ID>
100499

>  <Target Name>
SARS coronavirus

>  <Target Organism>
SARS coronavirus

>  <Target Description>
Target is a complete organism

>  <Sequence Accession>


>  <Reference>
Bioorg. Med. Chem. Lett. 17 (9), 2470-2473 (2007)

>  <Pubmed ID>
17336519

>  <DOI>
10.1016/j.bmcl.2007.02.026

>  <InChI-Key>
GTFKHUYSYOGXNT-OXOINMOOSA-N

>  <Molecular Formula>
C10H11N4O3Cl

>  <Monoisotopic Mass>
270.051968

>  <Druglikeness>
-2.405

$$$$
Compound 189
Actelion Java MolfileCreator 1.0

 21 22  0  0  1  0  0  0  0  0999 V2000
    0.0000   -0.0000   -0.0000 O   0  0  0  0  0  0  0  0  0  0  0  0
   -0.0118    1.5151   -0.0000 C   0  0  0  0  0  0  0  0  0  0  0  0
    1.2783    2.2726   -0.0000 N   0  0  0  0  0  0  0  0  0  0  0  0
   -1.3138    2.2726   -0.0000 C   0  0  0  0  0  0  0  0  0  0  0  0
    2.5685    1.5387   -0.0000 C   0  0  0  0  0  0  0  0  0  0  0  0
   -2.0714    3.5864   -0.0000 O   0  0  0  0  0  0  0  0  0  0  0  0
   -2.8289    2.2844   -0.0000 C   0  0  0  0  0  0  0  0  0  0  0  0
    3.8587    2.2963   -0.0000 C   0  0  0  0  0  0  0  0  0  0  0  0
    2.5567    0.0473   -0.0000 C   0  0  0  0  0  0  0  0  0  0  0  0
   -4.1428    1.5387   -0.0000 C   0  0  0  0  0  0  0  0  0  0  0  0
    3.8469    3.8113   -0.0000 O   0  0  0  0  0  0  0  0  0  0  0  0
    5.1489    1.5506   -0.0000 O   0  0  0  0  0  0  0  0  0  0  0  0
    3.8469   -0.6984   -0.0000 C   0  0  0  0  0  0  0  0  0  0  0  0
    1.2428   -0.6984   -0.0000 C   0  0  0  0  0  0  0  0  0  0  0  0
    6.4390    2.3081   -0.0000 C   0  0  0  0  0  0  0  0  0  0  0  0
    7.7292    1.5624   -0.0000 C   0  0  0  0  0  0  0  0  0  0  0  0
    7.7055    0.0710   -0.0000 C   0  0  0  0  0  0  0  0  0  0  0  0
    9.0076    2.3318   -0.0000 C   0  0  0  0  0  0  0  0  0  0  0  0
    8.9957   -0.6747   -0.0000 C   0  0  0  0  0  0  0  0  0  0  0  0
   10.2977    1.5979   -0.0000 C   0  0  0  0  0  0  0  0  0  0  0  0
   10.2859    0.0829   -0.0000 C   0  0  0  0  0  0  0  0  0  0  0  0
  1  2  2  0  0  0  0
  2  3  1  0  0  0  0
  4  2  1  1  0  0  0
  5  3  1  6  0  0  0
  4  6  1  0  0  0  0
  4  7  1  0  0  0  0
  5  8  1  0  0  0  0
  5  9  1  0  0  0  0
  7 10  1  1  0  0  0
  8 11  2  0  0  0  0
  8 12  1  0  0  0  0
  9 13  1  0  0  0  0
  9 14  1  0  0  0  0
 12 15  1  0  0  0  0
 15 16  1  0  0  0  0
 16 17  2  0  0  0  0
 16 18  1  0  0  0  0
 17 19  1  0  0  0  0
 18 20  2  0  0  0  0
 19 21  2  0  0  0  0
  6  7  1  0  0  0  0
 20 21  1  0  0  0  0
M  END
>  <MolRegNo>
333820

>  <m>
=

>  <Value>
10

>  <Unit>
%

>  <Type>
Inhibition

>  <Ligand Efficiency>


>  <Binding Efficiency>


>  <Surface Efficiency>


>  <Assay Index>
254531

>  <Assay Category>


>  <Assay Organism>
SARS coronavirus

>  <Target ID>
20012

>  <Target Name>
SARS coronavirus 3C-like proteinase

>  <Target Organism>
SARS coronavirus

>  <Target Description>
Target is a single protein chain

>  <Sequence Accession>
P0C6U8

>  <Reference>
Bioorg. Med. Chem. Lett. 15 (24), 5365-5369 (2005)

>  <Pubmed ID>
16216498

>  <DOI>
10.1016/j.bmcl.2005.09.012

>  <InChI-Key>
GTXDNECTLBDNJY-FPMFFAJLSA-N

>  <Molecular Formula>
C16H21NO4

>  <Monoisotopic Mass>
291.147059

>  <Druglikeness>
3.8244

$$$$
Compound 190
Actelion Java MolfileCreator 1.0

 15 16  0  0  0  0  0  0  0  0999 V2000
    0.0000   -0.0000   -0.0000 S   0  0  0  0  0  0  0  0  0  0  0  0
    1.3574   -0.5954   -0.0000 C   0  0  0  0  0  0  0  0  0  0  0  0
   -1.0240   -1.1074   -0.0000 C   0  0  0  0  0  0  0  0  0  0  0  0
    2.6553    0.1667   -0.0000 C   0  0  0  0  0  0  0  0  0  0  0  0
    1.1907   -2.0838   -0.0000 C   0  0  0  0  0  0  0  0  0  0  0  0
   -0.2858   -2.4053   -0.0000 C   0  0  0  0  0  0  0  0  0  0  0  0
    2.6434    1.6908   -0.0000 O   0  0  0  0  0  0  0  0  0  0  0  0
    3.9532   -0.5715   -0.0000 O   0  0  0  0  0  0  0  0  0  0  0  0
    5.2511    0.1905   -0.0000 C   0  0  0  0  0  0  0  0  0  0  0  0
    6.5490   -0.5477   -0.0000 C   0  0  0  0  0  0  0  0  0  0  0  0
    6.5371   -2.0480   -0.0000 C   0  0  0  0  0  0  0  0  0  0  0  0
    7.8350    0.2143   -0.0000 C   0  0  0  0  0  0  0  0  0  0  0  0
    7.8350   -2.7863   -0.0000 N   0  0  0  0  0  0  0  0  0  0  0  0
    9.1328   -0.5239   -0.0000 C   0  0  0  0  0  0  0  0  0  0  0  0
    9.1328   -2.0242   -0.0000 C   0  0  0  0  0  0  0  0  0  0  0  0
  1  2  1  0  0  0  0
  1  3  1  0  0  0  0
  2  4  1  0  0  0  0
  2  5  2  0  0  0  0
  3  6  2  0  0  0  0
  4  7  2  0  0  0  0
  4  8  1  0  0  0  0
  8  9  1  0  0  0  0
  9 10  1  0  0  0  0
 10 11  2  0  0  0  0
 10 12  1  0  0  0  0
 11 13  1  0  0  0  0
 12 14  2  0  0  0  0
 13 15  2  0  0  0  0
  5  6  1  0  0  0  0
 14 15  1  0  0  0  0
M  END
>  <MolRegNo>
371881

>  <m>
=

>  <Value>
19

>  <Unit>
%

>  <Type>
Inhibition

>  <Ligand Efficiency>


>  <Binding Efficiency>


>  <Surface Efficiency>


>  <Assay Index>
278390

>  <Assay Category>


>  <Assay Organism>
SARS coronavirus

>  <Target ID>
20012

>  <Target Name>
SARS coronavirus 3C-like proteinase

>  <Target Organism>
SARS coronavirus

>  <Target Description>
Target is a single protein chain

>  <Sequence Accession>
P0C6U8

>  <Reference>
J. Med. Chem. 50 (8), 1850-1864 (2007)

>  <Pubmed ID>
17381079

>  <DOI>
10.1021/jm061425k

>  <InChI-Key>
GVDKMRCLPSJOOL-UHFFFAOYSA-N

>  <Molecular Formula>
C11H9NO2S

>  <Monoisotopic Mass>
219.035399

>  <Druglikeness>
1.7398

$$$$
Compound 191
Actelion Java MolfileCreator 1.0

 22 25  0  0  0  0  0  0  0  0999 V2000
    0.0000   -0.0000   -0.0000 O   0  0  0  0  0  0  0  0  0  0  0  0
    1.2992   -0.7271   -0.0000 C   0  0  0  0  0  0  0  0  0  0  0  0
    1.2992   -2.2171   -0.0000 C   0  0  0  0  0  0  0  0  0  0  0  0
    2.5866    0.0477   -0.0000 C   0  0  0  0  0  0  0  0  0  0  0  0
    2.5985   -2.9442   -0.0000 C   0  0  0  0  0  0  0  0  0  0  0  0
   -0.0119   -2.9561   -0.0000 C   0  0  0  0  0  0  0  0  0  0  0  0
    2.5627    1.5615   -0.0000 O   0  0  0  0  0  0  0  0  0  0  0  0
    3.8858   -0.6794   -0.0000 C   0  0  0  0  0  0  0  0  0  0  0  0
    3.8739   -2.1813   -0.0000 C   0  0  0  0  0  0  0  0  0  0  0  0
    2.5866   -4.4341   -0.0000 C   0  0  0  0  0  0  0  0  0  0  0  0
   -0.0119   -4.4580   -0.0000 C   0  0  0  0  0  0  0  0  0  0  0  0
   -1.3350   -2.2051   -0.0000 C   0  0  0  0  0  0  0  0  0  0  0  0
    5.3043   -0.2026   -0.0000 C   0  0  0  0  0  0  0  0  0  0  0  0
    5.2923   -2.6343   -0.0000 O   0  0  0  0  0  0  0  0  0  0  0  0
    1.2873   -5.1731   -0.0000 C   0  0  0  0  0  0  0  0  0  0  0  0
   -1.3231   -5.2208   -0.0000 C   0  0  0  0  0  0  0  0  0  0  0  0
   -2.6462   -2.9561   -0.0000 C   0  0  0  0  0  0  0  0  0  0  0  0
    6.1744   -1.4065   -0.0000 C   0  0  0  0  0  0  0  0  0  0  0  0
    5.7572    1.2396   -0.0000 C   0  0  0  0  0  0  0  0  0  0  0  0
   -2.6581   -4.4580   -0.0000 C   0  0  0  0  0  0  0  0  0  0  0  0
   -2.0979   -6.5082   -0.0000 C   0  0  0  0  0  0  0  0  0  0  0  0
   -0.5960   -6.5082   -0.0000 C   0  0  0  0  0  0  0  0  0  0  0  0
  1  2  2  0  0  0  0
  2  3  1  0  0  0  0
  2  4  1  0  0  0  0
  3  5  2  0  0  0  0
  3  6  1  0  0  0  0
  4  7  2  0  0  0  0
  4  8  1  0  0  0  0
  5  9  1  0  0  0  0
  5 10  1  0  0  0  0
  6 11  2  0  0  0  0
  6 12  1  0  0  0  0
  8 13  1  0  0  0  0
  9 14  1  0  0  0  0
 10 15  2  0  0  0  0
 11 16  1  0  0  0  0
 12 17  1  0  0  0  0
 13 18  1  0  0  0  0
 13 19  1  1  0  0  0
 16 20  1  0  0  0  0
 16 21  1  0  0  0  0
 16 22  1  0  0  0  0
  8  9  2  0  0  0  0
 11 15  1  0  0  0  0
 14 18  1  0  0  0  0
 17 20  1  0  0  0  0
M  END
>  <MolRegNo>
314493

>  <m>
=

>  <Value>
226700

>  <Unit>
nM

>  <Type>
IC50

>  <Ligand Efficiency>


>  <Binding Efficiency>


>  <Surface Efficiency>


>  <Assay Index>
678191

>  <Assay Category>


>  <Assay Organism>
SARS coronavirus

>  <Target ID>
20012

>  <Target Name>
SARS coronavirus 3C-like proteinase

>  <Target Organism>
SARS coronavirus

>  <Target Description>
Target is a single protein chain

>  <Sequence Accession>
P0C6U8

>  <Reference>
Bioorg. Med. Chem. 20 (19), 5928-5935 (2012)

>  <Pubmed ID>
22884354

>  <DOI>
10.1016/j.bmc.2012.07.038

>  <InChI-Key>
GVKKJJOMQCNPGB-JTQLQIEISA-N

>  <Molecular Formula>
C19H20O3

>  <Monoisotopic Mass>
296.141245

>  <Druglikeness>
-7.2224

$$$$
Compound 192
Actelion Java MolfileCreator 1.0

 22 25  0  0  0  0  0  0  0  0999 V2000
    0.0000   -0.0000   -0.0000 O   0  0  0  0  0  0  0  0  0  0  0  0
    1.2992   -0.7271   -0.0000 C   0  0  0  0  0  0  0  0  0  0  0  0
    1.2992   -2.2171   -0.0000 C   0  0  0  0  0  0  0  0  0  0  0  0
    2.5866    0.0477   -0.0000 C   0  0  0  0  0  0  0  0  0  0  0  0
    2.5985   -2.9442   -0.0000 C   0  0  0  0  0  0  0  0  0  0  0  0
   -0.0119   -2.9561   -0.0000 C   0  0  0  0  0  0  0  0  0  0  0  0
    2.5627    1.5615   -0.0000 O   0  0  0  0  0  0  0  0  0  0  0  0
    3.8858   -0.6794   -0.0000 C   0  0  0  0  0  0  0  0  0  0  0  0
    3.8739   -2.1813   -0.0000 C   0  0  0  0  0  0  0  0  0  0  0  0
    2.5866   -4.4341   -0.0000 C   0  0  0  0  0  0  0  0  0  0  0  0
   -0.0119   -4.4580   -0.0000 C   0  0  0  0  0  0  0  0  0  0  0  0
   -1.3350   -2.2051   -0.0000 C   0  0  0  0  0  0  0  0  0  0  0  0
    5.3043   -0.2026   -0.0000 C   0  0  0  0  0  0  0  0  0  0  0  0
    5.2923   -2.6343   -0.0000 O   0  0  0  0  0  0  0  0  0  0  0  0
    1.2873   -5.1731   -0.0000 C   0  0  0  0  0  0  0  0  0  0  0  0
   -1.3231   -5.2208   -0.0000 C   0  0  0  0  0  0  0  0  0  0  0  0
   -2.6462   -2.9561   -0.0000 C   0  0  0  0  0  0  0  0  0  0  0  0
    6.1744   -1.4065   -0.0000 C   0  0  0  0  0  0  0  0  0  0  0  0
    5.7572    1.2396   -0.0000 C   0  0  0  0  0  0  0  0  0  0  0  0
   -2.6581   -4.4580   -0.0000 C   0  0  0  0  0  0  0  0  0  0  0  0
   -2.0979   -6.5082   -0.0000 C   0  0  0  0  0  0  0  0  0  0  0  0
   -0.5960   -6.5082   -0.0000 C   0  0  0  0  0  0  0  0  0  0  0  0
  1  2  2  0  0  0  0
  2  3  1  0  0  0  0
  2  4  1  0  0  0  0
  3  5  2  0  0  0  0
  3  6  1  0  0  0  0
  4  7  2  0  0  0  0
  4  8  1  0  0  0  0
  5  9  1  0  0  0  0
  5 10  1  0  0  0  0
  6 11  2  0  0  0  0
  6 12  1  0  0  0  0
  8 13  1  0  0  0  0
  9 14  1  0  0  0  0
 10 15  2  0  0  0  0
 11 16  1  0  0  0  0
 12 17  1  0  0  0  0
 13 18  1  0  0  0  0
 13 19  1  1  0  0  0
 16 20  1  0  0  0  0
 16 21  1  0  0  0  0
 16 22  1  0  0  0  0
  8  9  2  0  0  0  0
 11 15  1  0  0  0  0
 14 18  1  0  0  0  0
 17 20  1  0  0  0  0
M  END
>  <MolRegNo>
314493

>  <m>
=

>  <Value>
87600

>  <Unit>
nM

>  <Type>
IC50

>  <Ligand Efficiency>
0.25

>  <Binding Efficiency>
13.69

>  <Surface Efficiency>
9.36

>  <Assay Index>
678193

>  <Assay Category>


>  <Assay Organism>
SARS coronavirus

>  <Target ID>
20012

>  <Target Name>
SARS coronavirus 3C-like proteinase

>  <Target Organism>
SARS coronavirus

>  <Target Description>
Target is a single protein chain

>  <Sequence Accession>
P0C6U8

>  <Reference>
Bioorg. Med. Chem. 20 (19), 5928-5935 (2012)

>  <Pubmed ID>
22884354

>  <DOI>
10.1016/j.bmc.2012.07.038

>  <InChI-Key>
GVKKJJOMQCNPGB-JTQLQIEISA-N

>  <Molecular Formula>
C19H20O3

>  <Monoisotopic Mass>
296.141245

>  <Druglikeness>
-7.2224

$$$$
Compound 193
Actelion Java MolfileCreator 1.0

 22 25  0  0  0  0  0  0  0  0999 V2000
    0.0000   -0.0000   -0.0000 O   0  0  0  0  0  0  0  0  0  0  0  0
    1.2992   -0.7271   -0.0000 C   0  0  0  0  0  0  0  0  0  0  0  0
    1.2992   -2.2171   -0.0000 C   0  0  0  0  0  0  0  0  0  0  0  0
    2.5866    0.0477   -0.0000 C   0  0  0  0  0  0  0  0  0  0  0  0
    2.5985   -2.9442   -0.0000 C   0  0  0  0  0  0  0  0  0  0  0  0
   -0.0119   -2.9561   -0.0000 C   0  0  0  0  0  0  0  0  0  0  0  0
    2.5627    1.5615   -0.0000 O   0  0  0  0  0  0  0  0  0  0  0  0
    3.8858   -0.6794   -0.0000 C   0  0  0  0  0  0  0  0  0  0  0  0
    3.8739   -2.1813   -0.0000 C   0  0  0  0  0  0  0  0  0  0  0  0
    2.5866   -4.4341   -0.0000 C   0  0  0  0  0  0  0  0  0  0  0  0
   -0.0119   -4.4580   -0.0000 C   0  0  0  0  0  0  0  0  0  0  0  0
   -1.3350   -2.2051   -0.0000 C   0  0  0  0  0  0  0  0  0  0  0  0
    5.3043   -0.2026   -0.0000 C   0  0  0  0  0  0  0  0  0  0  0  0
    5.2923   -2.6343   -0.0000 O   0  0  0  0  0  0  0  0  0  0  0  0
    1.2873   -5.1731   -0.0000 C   0  0  0  0  0  0  0  0  0  0  0  0
   -1.3231   -5.2208   -0.0000 C   0  0  0  0  0  0  0  0  0  0  0  0
   -2.6462   -2.9561   -0.0000 C   0  0  0  0  0  0  0  0  0  0  0  0
    6.1744   -1.4065   -0.0000 C   0  0  0  0  0  0  0  0  0  0  0  0
    5.7572    1.2396   -0.0000 C   0  0  0  0  0  0  0  0  0  0  0  0
   -2.6581   -4.4580   -0.0000 C   0  0  0  0  0  0  0  0  0  0  0  0
   -2.0979   -6.5082   -0.0000 C   0  0  0  0  0  0  0  0  0  0  0  0
   -0.5960   -6.5082   -0.0000 C   0  0  0  0  0  0  0  0  0  0  0  0
  1  2  2  0  0  0  0
  2  3  1  0  0  0  0
  2  4  1  0  0  0  0
  3  5  2  0  0  0  0
  3  6  1  0  0  0  0
  4  7  2  0  0  0  0
  4  8  1  0  0  0  0
  5  9  1  0  0  0  0
  5 10  1  0  0  0  0
  6 11  2  0  0  0  0
  6 12  1  0  0  0  0
  8 13  1  0  0  0  0
  9 14  1  0  0  0  0
 10 15  2  0  0  0  0
 11 16  1  0  0  0  0
 12 17  1  0  0  0  0
 13 18  1  0  0  0  0
 13 19  1  1  0  0  0
 16 20  1  0  0  0  0
 16 21  1  0  0  0  0
 16 22  1  0  0  0  0
  8  9  2  0  0  0  0
 11 15  1  0  0  0  0
 14 18  1  0  0  0  0
 17 20  1  0  0  0  0
M  END
>  <MolRegNo>
314493

>  <m>
=

>  <Value>
10100

>  <Unit>
nM

>  <Type>
IC50

>  <Ligand Efficiency>
0.31

>  <Binding Efficiency>
16.86

>  <Surface Efficiency>
11.52

>  <Assay Index>
678310

>  <Assay Category>


>  <Assay Organism>
SARS coronavirus

>  <Target ID>
20012

>  <Target Name>
SARS coronavirus 3C-like proteinase

>  <Target Organism>
SARS coronavirus

>  <Target Description>
Target is a single protein chain

>  <Sequence Accession>
P0C6U8

>  <Reference>
Bioorg. Med. Chem. 20 (19), 5928-5935 (2012)

>  <Pubmed ID>
22884354

>  <DOI>
10.1016/j.bmc.2012.07.038

>  <InChI-Key>
GVKKJJOMQCNPGB-JTQLQIEISA-N

>  <Molecular Formula>
C19H20O3

>  <Monoisotopic Mass>
296.141245

>  <Druglikeness>
-7.2224

$$$$
Compound 194
Actelion Java MolfileCreator 1.0

 22 25  0  0  0  0  0  0  0  0999 V2000
    0.0000   -0.0000   -0.0000 O   0  0  0  0  0  0  0  0  0  0  0  0
    1.2992   -0.7271   -0.0000 C   0  0  0  0  0  0  0  0  0  0  0  0
    1.2992   -2.2171   -0.0000 C   0  0  0  0  0  0  0  0  0  0  0  0
    2.5866    0.0477   -0.0000 C   0  0  0  0  0  0  0  0  0  0  0  0
    2.5985   -2.9442   -0.0000 C   0  0  0  0  0  0  0  0  0  0  0  0
   -0.0119   -2.9561   -0.0000 C   0  0  0  0  0  0  0  0  0  0  0  0
    2.5627    1.5615   -0.0000 O   0  0  0  0  0  0  0  0  0  0  0  0
    3.8858   -0.6794   -0.0000 C   0  0  0  0  0  0  0  0  0  0  0  0
    3.8739   -2.1813   -0.0000 C   0  0  0  0  0  0  0  0  0  0  0  0
    2.5866   -4.4341   -0.0000 C   0  0  0  0  0  0  0  0  0  0  0  0
   -0.0119   -4.4580   -0.0000 C   0  0  0  0  0  0  0  0  0  0  0  0
   -1.3350   -2.2051   -0.0000 C   0  0  0  0  0  0  0  0  0  0  0  0
    5.3043   -0.2026   -0.0000 C   0  0  0  0  0  0  0  0  0  0  0  0
    5.2923   -2.6343   -0.0000 O   0  0  0  0  0  0  0  0  0  0  0  0
    1.2873   -5.1731   -0.0000 C   0  0  0  0  0  0  0  0  0  0  0  0
   -1.3231   -5.2208   -0.0000 C   0  0  0  0  0  0  0  0  0  0  0  0
   -2.6462   -2.9561   -0.0000 C   0  0  0  0  0  0  0  0  0  0  0  0
    6.1744   -1.4065   -0.0000 C   0  0  0  0  0  0  0  0  0  0  0  0
    5.7572    1.2396   -0.0000 C   0  0  0  0  0  0  0  0  0  0  0  0
   -2.6581   -4.4580   -0.0000 C   0  0  0  0  0  0  0  0  0  0  0  0
   -2.0979   -6.5082   -0.0000 C   0  0  0  0  0  0  0  0  0  0  0  0
   -0.5960   -6.5082   -0.0000 C   0  0  0  0  0  0  0  0  0  0  0  0
  1  2  2  0  0  0  0
  2  3  1  0  0  0  0
  2  4  1  0  0  0  0
  3  5  2  0  0  0  0
  3  6  1  0  0  0  0
  4  7  2  0  0  0  0
  4  8  1  0  0  0  0
  5  9  1  0  0  0  0
  5 10  1  0  0  0  0
  6 11  2  0  0  0  0
  6 12  1  0  0  0  0
  8 13  1  0  0  0  0
  9 14  1  0  0  0  0
 10 15  2  0  0  0  0
 11 16  1  0  0  0  0
 12 17  1  0  0  0  0
 13 18  1  0  0  0  0
 13 19  1  1  0  0  0
 16 20  1  0  0  0  0
 16 21  1  0  0  0  0
 16 22  1  0  0  0  0
  8  9  2  0  0  0  0
 11 15  1  0  0  0  0
 14 18  1  0  0  0  0
 17 20  1  0  0  0  0
M  END
>  <MolRegNo>
314493

>  <m>
=

>  <Value>
800

>  <Unit>
nM

>  <Type>
IC50

>  <Ligand Efficiency>
0.38

>  <Binding Efficiency>
20.57

>  <Surface Efficiency>
14.06

>  <Assay Index>
678190

>  <Assay Category>


>  <Assay Organism>
SARS coronavirus

>  <Target ID>
20012

>  <Target Name>
SARS coronavirus 3C-like proteinase

>  <Target Organism>
SARS coronavirus

>  <Target Description>
Target is a single protein chain

>  <Sequence Accession>
P0C6U8

>  <Reference>
Bioorg. Med. Chem. 20 (19), 5928-5935 (2012)

>  <Pubmed ID>
22884354

>  <DOI>
10.1016/j.bmc.2012.07.038

>  <InChI-Key>
GVKKJJOMQCNPGB-JTQLQIEISA-N

>  <Molecular Formula>
C19H20O3

>  <Monoisotopic Mass>
296.141245

>  <Druglikeness>
-7.2224

$$$$
Compound 195
Actelion Java MolfileCreator 1.0

 22 25  0  0  0  0  0  0  0  0999 V2000
    0.0000   -0.0000   -0.0000 O   0  0  0  0  0  0  0  0  0  0  0  0
    1.2992   -0.7271   -0.0000 C   0  0  0  0  0  0  0  0  0  0  0  0
    1.2992   -2.2171   -0.0000 C   0  0  0  0  0  0  0  0  0  0  0  0
    2.5866    0.0477   -0.0000 C   0  0  0  0  0  0  0  0  0  0  0  0
    2.5985   -2.9442   -0.0000 C   0  0  0  0  0  0  0  0  0  0  0  0
   -0.0119   -2.9561   -0.0000 C   0  0  0  0  0  0  0  0  0  0  0  0
    2.5627    1.5615   -0.0000 O   0  0  0  0  0  0  0  0  0  0  0  0
    3.8858   -0.6794   -0.0000 C   0  0  0  0  0  0  0  0  0  0  0  0
    3.8739   -2.1813   -0.0000 C   0  0  0  0  0  0  0  0  0  0  0  0
    2.5866   -4.4341   -0.0000 C   0  0  0  0  0  0  0  0  0  0  0  0
   -0.0119   -4.4580   -0.0000 C   0  0  0  0  0  0  0  0  0  0  0  0
   -1.3350   -2.2051   -0.0000 C   0  0  0  0  0  0  0  0  0  0  0  0
    5.3043   -0.2026   -0.0000 C   0  0  0  0  0  0  0  0  0  0  0  0
    5.2923   -2.6343   -0.0000 O   0  0  0  0  0  0  0  0  0  0  0  0
    1.2873   -5.1731   -0.0000 C   0  0  0  0  0  0  0  0  0  0  0  0
   -1.3231   -5.2208   -0.0000 C   0  0  0  0  0  0  0  0  0  0  0  0
   -2.6462   -2.9561   -0.0000 C   0  0  0  0  0  0  0  0  0  0  0  0
    6.1744   -1.4065   -0.0000 C   0  0  0  0  0  0  0  0  0  0  0  0
    5.7572    1.2396   -0.0000 C   0  0  0  0  0  0  0  0  0  0  0  0
   -2.6581   -4.4580   -0.0000 C   0  0  0  0  0  0  0  0  0  0  0  0
   -2.0979   -6.5082   -0.0000 C   0  0  0  0  0  0  0  0  0  0  0  0
   -0.5960   -6.5082   -0.0000 C   0  0  0  0  0  0  0  0  0  0  0  0
  1  2  2  0  0  0  0
  2  3  1  0  0  0  0
  2  4  1  0  0  0  0
  3  5  2  0  0  0  0
  3  6  1  0  0  0  0
  4  7  2  0  0  0  0
  4  8  1  0  0  0  0
  5  9  1  0  0  0  0
  5 10  1  0  0  0  0
  6 11  2  0  0  0  0
  6 12  1  0  0  0  0
  8 13  1  0  0  0  0
  9 14  1  0  0  0  0
 10 15  2  0  0  0  0
 11 16  1  0  0  0  0
 12 17  1  0  0  0  0
 13 18  1  0  0  0  0
 13 19  1  1  0  0  0
 16 20  1  0  0  0  0
 16 21  1  0  0  0  0
 16 22  1  0  0  0  0
  8  9  2  0  0  0  0
 11 15  1  0  0  0  0
 14 18  1  0  0  0  0
 17 20  1  0  0  0  0
M  END
>  <MolRegNo>
314493

>  <m>


>  <Value>
0

>  <Unit>


>  <Type>
Inhibition

>  <Ligand Efficiency>


>  <Binding Efficiency>


>  <Surface Efficiency>


>  <Assay Index>
678308

>  <Assay Category>


>  <Assay Organism>
SARS coronavirus

>  <Target ID>
20012

>  <Target Name>
SARS coronavirus 3C-like proteinase

>  <Target Organism>
SARS coronavirus

>  <Target Description>
Target is a single protein chain

>  <Sequence Accession>
P0C6U8

>  <Reference>
Bioorg. Med. Chem. 20 (19), 5928-5935 (2012)

>  <Pubmed ID>
22884354

>  <DOI>
10.1016/j.bmc.2012.07.038

>  <InChI-Key>
GVKKJJOMQCNPGB-JTQLQIEISA-N

>  <Molecular Formula>
C19H20O3

>  <Monoisotopic Mass>
296.141245

>  <Druglikeness>
-7.2224

$$$$
Compound 196
Actelion Java MolfileCreator 1.0

 22 25  0  0  0  0  0  0  0  0999 V2000
    0.0000   -0.0000   -0.0000 O   0  0  0  0  0  0  0  0  0  0  0  0
    1.2992   -0.7271   -0.0000 C   0  0  0  0  0  0  0  0  0  0  0  0
    1.2992   -2.2171   -0.0000 C   0  0  0  0  0  0  0  0  0  0  0  0
    2.5866    0.0477   -0.0000 C   0  0  0  0  0  0  0  0  0  0  0  0
    2.5985   -2.9442   -0.0000 C   0  0  0  0  0  0  0  0  0  0  0  0
   -0.0119   -2.9561   -0.0000 C   0  0  0  0  0  0  0  0  0  0  0  0
    2.5627    1.5615   -0.0000 O   0  0  0  0  0  0  0  0  0  0  0  0
    3.8858   -0.6794   -0.0000 C   0  0  0  0  0  0  0  0  0  0  0  0
    3.8739   -2.1813   -0.0000 C   0  0  0  0  0  0  0  0  0  0  0  0
    2.5866   -4.4341   -0.0000 C   0  0  0  0  0  0  0  0  0  0  0  0
   -0.0119   -4.4580   -0.0000 C   0  0  0  0  0  0  0  0  0  0  0  0
   -1.3350   -2.2051   -0.0000 C   0  0  0  0  0  0  0  0  0  0  0  0
    5.3043   -0.2026   -0.0000 C   0  0  0  0  0  0  0  0  0  0  0  0
    5.2923   -2.6343   -0.0000 O   0  0  0  0  0  0  0  0  0  0  0  0
    1.2873   -5.1731   -0.0000 C   0  0  0  0  0  0  0  0  0  0  0  0
   -1.3231   -5.2208   -0.0000 C   0  0  0  0  0  0  0  0  0  0  0  0
   -2.6462   -2.9561   -0.0000 C   0  0  0  0  0  0  0  0  0  0  0  0
    6.1744   -1.4065   -0.0000 C   0  0  0  0  0  0  0  0  0  0  0  0
    5.7572    1.2396   -0.0000 C   0  0  0  0  0  0  0  0  0  0  0  0
   -2.6581   -4.4580   -0.0000 C   0  0  0  0  0  0  0  0  0  0  0  0
   -2.0979   -6.5082   -0.0000 C   0  0  0  0  0  0  0  0  0  0  0  0
   -0.5960   -6.5082   -0.0000 C   0  0  0  0  0  0  0  0  0  0  0  0
  1  2  2  0  0  0  0
  2  3  1  0  0  0  0
  2  4  1  0  0  0  0
  3  5  2  0  0  0  0
  3  6  1  0  0  0  0
  4  7  2  0  0  0  0
  4  8  1  0  0  0  0
  5  9  1  0  0  0  0
  5 10  1  0  0  0  0
  6 11  2  0  0  0  0
  6 12  1  0  0  0  0
  8 13  1  0  0  0  0
  9 14  1  0  0  0  0
 10 15  2  0  0  0  0
 11 16  1  0  0  0  0
 12 17  1  0  0  0  0
 13 18  1  0  0  0  0
 13 19  1  1  0  0  0
 16 20  1  0  0  0  0
 16 21  1  0  0  0  0
 16 22  1  0  0  0  0
  8  9  2  0  0  0  0
 11 15  1  0  0  0  0
 14 18  1  0  0  0  0
 17 20  1  0  0  0  0
M  END
>  <MolRegNo>
314493

>  <m>


>  <Value>
0

>  <Unit>


>  <Type>
Inhibition

>  <Ligand Efficiency>


>  <Binding Efficiency>


>  <Surface Efficiency>


>  <Assay Index>
678309

>  <Assay Category>


>  <Assay Organism>
SARS coronavirus

>  <Target ID>
20012

>  <Target Name>
SARS coronavirus 3C-like proteinase

>  <Target Organism>
SARS coronavirus

>  <Target Description>
Target is a single protein chain

>  <Sequence Accession>
P0C6U8

>  <Reference>
Bioorg. Med. Chem. 20 (19), 5928-5935 (2012)

>  <Pubmed ID>
22884354

>  <DOI>
10.1016/j.bmc.2012.07.038

>  <InChI-Key>
GVKKJJOMQCNPGB-JTQLQIEISA-N

>  <Molecular Formula>
C19H20O3

>  <Monoisotopic Mass>
296.141245

>  <Druglikeness>
-7.2224

$$$$
Compound 197
Actelion Java MolfileCreator 1.0

 22 25  0  0  0  0  0  0  0  0999 V2000
    0.0000   -0.0000   -0.0000 O   0  0  0  0  0  0  0  0  0  0  0  0
    1.2992   -0.7271   -0.0000 C   0  0  0  0  0  0  0  0  0  0  0  0
    1.2992   -2.2171   -0.0000 C   0  0  0  0  0  0  0  0  0  0  0  0
    2.5866    0.0477   -0.0000 C   0  0  0  0  0  0  0  0  0  0  0  0
    2.5985   -2.9442   -0.0000 C   0  0  0  0  0  0  0  0  0  0  0  0
   -0.0119   -2.9561   -0.0000 C   0  0  0  0  0  0  0  0  0  0  0  0
    2.5627    1.5615   -0.0000 O   0  0  0  0  0  0  0  0  0  0  0  0
    3.8858   -0.6794   -0.0000 C   0  0  0  0  0  0  0  0  0  0  0  0
    3.8739   -2.1813   -0.0000 C   0  0  0  0  0  0  0  0  0  0  0  0
    2.5866   -4.4341   -0.0000 C   0  0  0  0  0  0  0  0  0  0  0  0
   -0.0119   -4.4580   -0.0000 C   0  0  0  0  0  0  0  0  0  0  0  0
   -1.3350   -2.2051   -0.0000 C   0  0  0  0  0  0  0  0  0  0  0  0
    5.3043   -0.2026   -0.0000 C   0  0  0  0  0  0  0  0  0  0  0  0
    5.2923   -2.6343   -0.0000 O   0  0  0  0  0  0  0  0  0  0  0  0
    1.2873   -5.1731   -0.0000 C   0  0  0  0  0  0  0  0  0  0  0  0
   -1.3231   -5.2208   -0.0000 C   0  0  0  0  0  0  0  0  0  0  0  0
   -2.6462   -2.9561   -0.0000 C   0  0  0  0  0  0  0  0  0  0  0  0
    6.1744   -1.4065   -0.0000 C   0  0  0  0  0  0  0  0  0  0  0  0
    5.7572    1.2396   -0.0000 C   0  0  0  0  0  0  0  0  0  0  0  0
   -2.6581   -4.4580   -0.0000 C   0  0  0  0  0  0  0  0  0  0  0  0
   -2.0979   -6.5082   -0.0000 C   0  0  0  0  0  0  0  0  0  0  0  0
   -0.5960   -6.5082   -0.0000 C   0  0  0  0  0  0  0  0  0  0  0  0
  1  2  2  0  0  0  0
  2  3  1  0  0  0  0
  2  4  1  0  0  0  0
  3  5  2  0  0  0  0
  3  6  1  0  0  0  0
  4  7  2  0  0  0  0
  4  8  1  0  0  0  0
  5  9  1  0  0  0  0
  5 10  1  0  0  0  0
  6 11  2  0  0  0  0
  6 12  1  0  0  0  0
  8 13  1  0  0  0  0
  9 14  1  0  0  0  0
 10 15  2  0  0  0  0
 11 16  1  0  0  0  0
 12 17  1  0  0  0  0
 13 18  1  0  0  0  0
 13 19  1  1  0  0  0
 16 20  1  0  0  0  0
 16 21  1  0  0  0  0
 16 22  1  0  0  0  0
  8  9  2  0  0  0  0
 11 15  1  0  0  0  0
 14 18  1  0  0  0  0
 17 20  1  0  0  0  0
M  END
>  <MolRegNo>
314493

>  <m>


>  <Value>
0

>  <Unit>


>  <Type>
Inhibition

>  <Ligand Efficiency>


>  <Binding Efficiency>


>  <Surface Efficiency>


>  <Assay Index>
678311

>  <Assay Category>


>  <Assay Organism>
SARS coronavirus

>  <Target ID>
20012

>  <Target Name>
SARS coronavirus 3C-like proteinase

>  <Target Organism>
SARS coronavirus

>  <Target Description>
Target is a single protein chain

>  <Sequence Accession>
P0C6U8

>  <Reference>
Bioorg. Med. Chem. 20 (19), 5928-5935 (2012)

>  <Pubmed ID>
22884354

>  <DOI>
10.1016/j.bmc.2012.07.038

>  <InChI-Key>
GVKKJJOMQCNPGB-JTQLQIEISA-N

>  <Molecular Formula>
C19H20O3

>  <Monoisotopic Mass>
296.141245

>  <Druglikeness>
-7.2224

$$$$
Compound 198
Actelion Java MolfileCreator 1.0

 22 25  0  0  0  0  0  0  0  0999 V2000
    0.0000   -0.0000   -0.0000 O   0  0  0  0  0  0  0  0  0  0  0  0
    1.2992   -0.7271   -0.0000 C   0  0  0  0  0  0  0  0  0  0  0  0
    1.2992   -2.2171   -0.0000 C   0  0  0  0  0  0  0  0  0  0  0  0
    2.5866    0.0477   -0.0000 C   0  0  0  0  0  0  0  0  0  0  0  0
    2.5985   -2.9442   -0.0000 C   0  0  0  0  0  0  0  0  0  0  0  0
   -0.0119   -2.9561   -0.0000 C   0  0  0  0  0  0  0  0  0  0  0  0
    2.5627    1.5615   -0.0000 O   0  0  0  0  0  0  0  0  0  0  0  0
    3.8858   -0.6794   -0.0000 C   0  0  0  0  0  0  0  0  0  0  0  0
    3.8739   -2.1813   -0.0000 C   0  0  0  0  0  0  0  0  0  0  0  0
    2.5866   -4.4341   -0.0000 C   0  0  0  0  0  0  0  0  0  0  0  0
   -0.0119   -4.4580   -0.0000 C   0  0  0  0  0  0  0  0  0  0  0  0
   -1.3350   -2.2051   -0.0000 C   0  0  0  0  0  0  0  0  0  0  0  0
    5.3043   -0.2026   -0.0000 C   0  0  0  0  0  0  0  0  0  0  0  0
    5.2923   -2.6343   -0.0000 O   0  0  0  0  0  0  0  0  0  0  0  0
    1.2873   -5.1731   -0.0000 C   0  0  0  0  0  0  0  0  0  0  0  0
   -1.3231   -5.2208   -0.0000 C   0  0  0  0  0  0  0  0  0  0  0  0
   -2.6462   -2.9561   -0.0000 C   0  0  0  0  0  0  0  0  0  0  0  0
    6.1744   -1.4065   -0.0000 C   0  0  0  0  0  0  0  0  0  0  0  0
    5.7572    1.2396   -0.0000 C   0  0  0  0  0  0  0  0  0  0  0  0
   -2.6581   -4.4580   -0.0000 C   0  0  0  0  0  0  0  0  0  0  0  0
   -2.0979   -6.5082   -0.0000 C   0  0  0  0  0  0  0  0  0  0  0  0
   -0.5960   -6.5082   -0.0000 C   0  0  0  0  0  0  0  0  0  0  0  0
  1  2  2  0  0  0  0
  2  3  1  0  0  0  0
  2  4  1  0  0  0  0
  3  5  2  0  0  0  0
  3  6  1  0  0  0  0
  4  7  2  0  0  0  0
  4  8  1  0  0  0  0
  5  9  1  0  0  0  0
  5 10  1  0  0  0  0
  6 11  2  0  0  0  0
  6 12  1  0  0  0  0
  8 13  1  0  0  0  0
  9 14  1  0  0  0  0
 10 15  2  0  0  0  0
 11 16  1  0  0  0  0
 12 17  1  0  0  0  0
 13 18  1  0  0  0  0
 13 19  1  1  0  0  0
 16 20  1  0  0  0  0
 16 21  1  0  0  0  0
 16 22  1  0  0  0  0
  8  9  2  0  0  0  0
 11 15  1  0  0  0  0
 14 18  1  0  0  0  0
 17 20  1  0  0  0  0
M  END
>  <MolRegNo>
314493

>  <m>


>  <Value>
0

>  <Unit>


>  <Type>
Inhibition

>  <Ligand Efficiency>


>  <Binding Efficiency>


>  <Surface Efficiency>


>  <Assay Index>
678313

>  <Assay Category>


>  <Assay Organism>
SARS coronavirus

>  <Target ID>
20012

>  <Target Name>
SARS coronavirus 3C-like proteinase

>  <Target Organism>
SARS coronavirus

>  <Target Description>
Target is a single protein chain

>  <Sequence Accession>
P0C6U8

>  <Reference>
Bioorg. Med. Chem. 20 (19), 5928-5935 (2012)

>  <Pubmed ID>
22884354

>  <DOI>
10.1016/j.bmc.2012.07.038

>  <InChI-Key>
GVKKJJOMQCNPGB-JTQLQIEISA-N

>  <Molecular Formula>
C19H20O3

>  <Monoisotopic Mass>
296.141245

>  <Druglikeness>
-7.2224

$$$$
Compound 199
Actelion Java MolfileCreator 1.0

 22 25  0  0  0  0  0  0  0  0999 V2000
    0.0000   -0.0000   -0.0000 O   0  0  0  0  0  0  0  0  0  0  0  0
    1.2992   -0.7271   -0.0000 C   0  0  0  0  0  0  0  0  0  0  0  0
    1.2992   -2.2171   -0.0000 C   0  0  0  0  0  0  0  0  0  0  0  0
    2.5866    0.0477   -0.0000 C   0  0  0  0  0  0  0  0  0  0  0  0
    2.5985   -2.9442   -0.0000 C   0  0  0  0  0  0  0  0  0  0  0  0
   -0.0119   -2.9561   -0.0000 C   0  0  0  0  0  0  0  0  0  0  0  0
    2.5627    1.5615   -0.0000 O   0  0  0  0  0  0  0  0  0  0  0  0
    3.8858   -0.6794   -0.0000 C   0  0  0  0  0  0  0  0  0  0  0  0
    3.8739   -2.1813   -0.0000 C   0  0  0  0  0  0  0  0  0  0  0  0
    2.5866   -4.4341   -0.0000 C   0  0  0  0  0  0  0  0  0  0  0  0
   -0.0119   -4.4580   -0.0000 C   0  0  0  0  0  0  0  0  0  0  0  0
   -1.3350   -2.2051   -0.0000 C   0  0  0  0  0  0  0  0  0  0  0  0
    5.3043   -0.2026   -0.0000 C   0  0  0  0  0  0  0  0  0  0  0  0
    5.2923   -2.6343   -0.0000 O   0  0  0  0  0  0  0  0  0  0  0  0
    1.2873   -5.1731   -0.0000 C   0  0  0  0  0  0  0  0  0  0  0  0
   -1.3231   -5.2208   -0.0000 C   0  0  0  0  0  0  0  0  0  0  0  0
   -2.6462   -2.9561   -0.0000 C   0  0  0  0  0  0  0  0  0  0  0  0
    6.1744   -1.4065   -0.0000 C   0  0  0  0  0  0  0  0  0  0  0  0
    5.7572    1.2396   -0.0000 C   0  0  0  0  0  0  0  0  0  0  0  0
   -2.6581   -4.4580   -0.0000 C   0  0  0  0  0  0  0  0  0  0  0  0
   -2.0979   -6.5082   -0.0000 C   0  0  0  0  0  0  0  0  0  0  0  0
   -0.5960   -6.5082   -0.0000 C   0  0  0  0  0  0  0  0  0  0  0  0
  1  2  2  0  0  0  0
  2  3  1  0  0  0  0
  2  4  1  0  0  0  0
  3  5  2  0  0  0  0
  3  6  1  0  0  0  0
  4  7  2  0  0  0  0
  4  8  1  0  0  0  0
  5  9  1  0  0  0  0
  5 10  1  0  0  0  0
  6 11  2  0  0  0  0
  6 12  1  0  0  0  0
  8 13  1  0  0  0  0
  9 14  1  0  0  0  0
 10 15  2  0  0  0  0
 11 16  1  0  0  0  0
 12 17  1  0  0  0  0
 13 18  1  0  0  0  0
 13 19  1  1  0  0  0
 16 20  1  0  0  0  0
 16 21  1  0  0  0  0
 16 22  1  0  0  0  0
  8  9  2  0  0  0  0
 11 15  1  0  0  0  0
 14 18  1  0  0  0  0
 17 20  1  0  0  0  0
M  END
>  <MolRegNo>
314493

>  <m>
=

>  <Value>
9000

>  <Unit>
nM

>  <Type>
Ki

>  <Ligand Efficiency>
0.31

>  <Binding Efficiency>
17.03

>  <Surface Efficiency>
11.63

>  <Assay Index>
678192

>  <Assay Category>


>  <Assay Organism>
SARS coronavirus

>  <Target ID>
20012

>  <Target Name>
SARS coronavirus 3C-like proteinase

>  <Target Organism>
SARS coronavirus

>  <Target Description>
Target is a single protein chain

>  <Sequence Accession>
P0C6U8

>  <Reference>
Bioorg. Med. Chem. 20 (19), 5928-5935 (2012)

>  <Pubmed ID>
22884354

>  <DOI>
10.1016/j.bmc.2012.07.038

>  <InChI-Key>
GVKKJJOMQCNPGB-JTQLQIEISA-N

>  <Molecular Formula>
C19H20O3

>  <Monoisotopic Mass>
296.141245

>  <Druglikeness>
-7.2224

$$$$
Compound 200
Actelion Java MolfileCreator 1.0

 14 15  0  0  0  0  0  0  0  0999 V2000
    0.0000   -0.0000   -0.0000 S   0  0  0  0  0  0  0  0  0  0  0  0
    1.2085   -0.8715   -0.0000 C   0  0  0  0  0  0  0  0  0  0  0  0
   -1.2318   -0.8715   -0.0000 C   0  0  0  0  0  0  0  0  0  0  0  0
    2.6262   -0.3951   -0.0000 C   0  0  0  0  0  0  0  0  0  0  0  0
    0.7321   -2.2892   -0.0000 C   0  0  0  0  0  0  0  0  0  0  0  0
   -0.7786   -2.2892   -0.0000 C   0  0  0  0  0  0  0  0  0  0  0  0
    3.7418   -1.3945   -0.0000 O   0  0  0  0  0  0  0  0  0  0  0  0
    2.9284    1.0923   -0.0000 O   0  0  0  0  0  0  0  0  0  0  0  0
    4.3577    1.5688   -0.0000 C   0  0  0  0  0  0  0  0  0  0  0  0
    4.6482    3.0446   -0.0000 C   0  0  0  0  0  0  0  0  0  0  0  0
    5.4616    0.5694   -0.0000 C   0  0  0  0  0  0  0  0  0  0  0  0
    6.0659    3.5210   -0.0000 N   0  0  0  0  0  0  0  0  0  0  0  0
    6.8793    1.0458   -0.0000 C   0  0  0  0  0  0  0  0  0  0  0  0
    7.1815    2.5216   -0.0000 C   0  0  0  0  0  0  0  0  0  0  0  0
  1  2  1  0  0  0  0
  1  3  1  0  0  0  0
  2  4  1  0  0  0  0
  2  5  2  0  0  0  0
  3  6  2  0  0  0  0
  4  7  2  0  0  0  0
  4  8  1  0  0  0  0
  8  9  1  0  0  0  0
  9 10  2  0  0  0  0
  9 11  1  0  0  0  0
 10 12  1  0  0  0  0
 11 13  2  0  0  0  0
 12 14  2  0  0  0  0
  5  6  1  0  0  0  0
 13 14  1  0  0  0  0
M  END
>  <MolRegNo>
371834

>  <m>
=

>  <Value>
91

>  <Unit>
%

>  <Type>
Inhibition

>  <Ligand Efficiency>


>  <Binding Efficiency>


>  <Surface Efficiency>


>  <Assay Index>
278390

>  <Assay Category>


>  <Assay Organism>
SARS coronavirus

>  <Target ID>
20012

>  <Target Name>
SARS coronavirus 3C-like proteinase

>  <Target Organism>
SARS coronavirus

>  <Target Description>
Target is a single protein chain

>  <Sequence Accession>
P0C6U8

>  <Reference>
J. Med. Chem. 50 (8), 1850-1864 (2007)

>  <Pubmed ID>
17381079

>  <DOI>
10.1021/jm061425k

>  <InChI-Key>
GVVPOBOYVLCUFS-UHFFFAOYSA-N

>  <Molecular Formula>
C10H7NO2S

>  <Monoisotopic Mass>
205.019749

>  <Druglikeness>
1.7408

$$$$
Compound 201
Actelion Java MolfileCreator 1.0

 18 19  0  0  0  0  0  0  0  0999 V2000
    0.0000   -0.0000   -0.0000 S   0  0  0  0  0  0  0  0  0  0  0  0
    1.3609    0.6208   -0.0000 C   0  0  0  0  0  0  0  0  0  0  0  0
   -1.0147    1.1341   -0.0000 C   0  0  0  0  0  0  0  0  0  0  0  0
    2.6502   -0.1194   -0.0000 C   0  0  0  0  0  0  0  0  0  0  0  0
    1.1938    2.1250   -0.0000 C   0  0  0  0  0  0  0  0  0  0  0  0
   -0.2746    2.4473   -0.0000 C   0  0  0  0  0  0  0  0  0  0  0  0
    2.6383   -1.6116   -0.0000 O   0  0  0  0  0  0  0  0  0  0  0  0
    3.9395    0.6446   -0.0000 O   0  0  0  0  0  0  0  0  0  0  0  0
    5.2288   -0.0955   -0.0000 C   0  0  0  0  0  0  0  0  0  0  0  0
    6.5181    0.6685   -0.0000 C   0  0  0  0  0  0  0  0  0  0  0  0
    5.2169   -1.5877   -0.0000 C   0  0  0  0  0  0  0  0  0  0  0  0
    6.4942    2.1966   -0.0000 N   0  0  0  0  0  0  0  0  0  0  0  0
    7.8074   -0.0716   -0.0000 N   0  0  0  0  0  0  0  0  0  0  0  0
    6.5062   -2.3279   -0.0000 C   0  0  0  0  0  0  0  0  0  0  0  0
    5.1811    2.9606   -0.0000 O   0  0  0  0  0  0  0  0  0  0  0  0
    7.7835    2.9606   -0.0000 O   0  0  0  0  0  0  0  0  0  0  0  0
    7.7955   -1.5758   -0.0000 C   0  0  0  0  0  0  0  0  0  0  0  0
    9.0848   -2.3160   -0.0000 C   0  0  0  0  0  0  0  0  0  0  0  0
  1  2  1  0  0  0  0
  1  3  1  0  0  0  0
  2  4  1  0  0  0  0
  2  5  2  0  0  0  0
  3  6  2  0  0  0  0
  4  7  2  0  0  0  0
  4  8  1  0  0  0  0
  8  9  1  0  0  0  0
  9 10  2  0  0  0  0
  9 11  1  0  0  0  0
 10 12  1  0  0  0  0
 10 13  1  0  0  0  0
 11 14  2  0  0  0  0
 12 15  2  0  0  0  0
 12 16  1  0  0  0  0
 13 17  2  0  0  0  0
 17 18  1  0  0  0  0
  5  6  1  0  0  0  0
 14 17  1  0  0  0  0
M  CHG  2  12   1  16  -1
M  END
>  <MolRegNo>
371857

>  <m>
=

>  <Value>
15

>  <Unit>
%

>  <Type>
Inhibition

>  <Ligand Efficiency>


>  <Binding Efficiency>


>  <Surface Efficiency>


>  <Assay Index>
278390

>  <Assay Category>


>  <Assay Organism>
SARS coronavirus

>  <Target ID>
20012

>  <Target Name>
SARS coronavirus 3C-like proteinase

>  <Target Organism>
SARS coronavirus

>  <Target Description>
Target is a single protein chain

>  <Sequence Accession>
P0C6U8

>  <Reference>
J. Med. Chem. 50 (8), 1850-1864 (2007)

>  <Pubmed ID>
17381079

>  <DOI>
10.1021/jm061425k

>  <InChI-Key>
GXQUAQGJBDQBCA-UHFFFAOYSA-N

>  <Molecular Formula>
C11H8N2O4S

>  <Monoisotopic Mass>
264.020478

>  <Druglikeness>
-3.2883

$$$$
Compound 202
Actelion Java MolfileCreator 1.0

 19 21  0  0  0  0  0  0  0  0999 V2000
    0.0000   -0.0000   -0.0000 I   0  0  0  0  0  0  0  0  0  0  0  0
    1.2963   -0.7374   -0.0000 C   0  0  0  0  0  0  0  0  0  0  0  0
    2.6046    0.0238   -0.0000 C   0  0  0  0  0  0  0  0  0  0  0  0
    1.2845   -2.2359   -0.0000 C   0  0  0  0  0  0  0  0  0  0  0  0
    3.9009   -0.7136   -0.0000 C   0  0  0  0  0  0  0  0  0  0  0  0
    2.5927   -2.9733   -0.0000 C   0  0  0  0  0  0  0  0  0  0  0  0
    5.3162   -0.2379   -0.0000 C   0  0  0  0  0  0  0  0  0  0  0  0
    3.8890   -2.2121   -0.0000 C   0  0  0  0  0  0  0  0  0  0  0  0
    5.7800    1.2131   -0.0000 O   0  0  0  0  0  0  0  0  0  0  0  0
    6.1963   -1.4510   -0.0000 C   0  0  0  0  0  0  0  0  0  0  0  0
    5.3043   -2.6522   -0.0000 N   0  0  0  0  0  0  0  0  0  0  0  0
    7.6948   -1.4510   -0.0000 O   0  0  0  0  0  0  0  0  0  0  0  0
    5.7681   -4.0793   -0.0000 C   0  0  0  0  0  0  0  0  0  0  0  0
    7.2667   -4.0674   -0.0000 C   0  0  0  0  0  0  0  0  0  0  0  0
    7.9921   -2.7473   -0.0000 C   0  0  0  0  0  0  0  0  0  0  0  0
    8.0040   -5.3638   -0.0000 C   0  0  0  0  0  0  0  0  0  0  0  0
    9.4907   -2.7235   -0.0000 C   0  0  0  0  0  0  0  0  0  0  0  0
    9.4907   -5.3400   -0.0000 C   0  0  0  0  0  0  0  0  0  0  0  0
   10.2518   -4.0199   -0.0000 C   0  0  0  0  0  0  0  0  0  0  0  0
  1  2  1  0  0  0  0
  2  3  2  0  0  0  0
  2  4  1  0  0  0  0
  3  5  1  0  0  0  0
  4  6  2  0  0  0  0
  5  7  1  0  0  0  0
  5  8  2  0  0  0  0
  7  9  2  0  0  0  0
  7 10  1  0  0  0  0
  8 11  1  0  0  0  0
 10 12  2  0  0  0  0
 11 13  1  0  0  0  0
 13 14  1  0  0  0  0
 14 15  2  0  0  0  0
 14 16  1  0  0  0  0
 15 17  1  0  0  0  0
 16 18  2  0  0  0  0
 17 19  2  0  0  0  0
  6  8  1  0  0  0  0
 10 11  1  0  0  0  0
 18 19  1  0  0  0  0
M  END
>  <MolRegNo>
194698

>  <m>
=

>  <Value>
50000

>  <Unit>
nM

>  <Type>
IC50

>  <Ligand Efficiency>
0.31

>  <Binding Efficiency>
11.84

>  <Surface Efficiency>
11.51

>  <Assay Index>
262886

>  <Assay Category>


>  <Assay Organism>
SARS coronavirus

>  <Target ID>
20012

>  <Target Name>
SARS coronavirus 3C-like proteinase

>  <Target Organism>
SARS coronavirus

>  <Target Description>
Target is a single protein chain

>  <Sequence Accession>
P0C6U8

>  <Reference>
J. Med. Chem. 49 (12), 3440-3443 (2006)

>  <Pubmed ID>
16759084

>  <DOI>
10.1021/jm0602357

>  <InChI-Key>
GXSCFBFBNQZZJL-UHFFFAOYSA-N

>  <Molecular Formula>
C15H10NO2I

>  <Monoisotopic Mass>
362.975627

>  <Druglikeness>
0.55214

$$$$
Compound 203
Actelion Java MolfileCreator 1.0

 19 21  0  0  0  0  0  0  0  0999 V2000
    0.0000   -0.0000   -0.0000 I   0  0  0  0  0  0  0  0  0  0  0  0
    1.2963   -0.7374   -0.0000 C   0  0  0  0  0  0  0  0  0  0  0  0
    2.6046    0.0238   -0.0000 C   0  0  0  0  0  0  0  0  0  0  0  0
    1.2845   -2.2359   -0.0000 C   0  0  0  0  0  0  0  0  0  0  0  0
    3.9009   -0.7136   -0.0000 C   0  0  0  0  0  0  0  0  0  0  0  0
    2.5927   -2.9733   -0.0000 C   0  0  0  0  0  0  0  0  0  0  0  0
    5.3162   -0.2379   -0.0000 C   0  0  0  0  0  0  0  0  0  0  0  0
    3.8890   -2.2121   -0.0000 C   0  0  0  0  0  0  0  0  0  0  0  0
    5.7800    1.2131   -0.0000 O   0  0  0  0  0  0  0  0  0  0  0  0
    6.1963   -1.4510   -0.0000 C   0  0  0  0  0  0  0  0  0  0  0  0
    5.3043   -2.6522   -0.0000 N   0  0  0  0  0  0  0  0  0  0  0  0
    7.6948   -1.4510   -0.0000 O   0  0  0  0  0  0  0  0  0  0  0  0
    5.7681   -4.0793   -0.0000 C   0  0  0  0  0  0  0  0  0  0  0  0
    7.2667   -4.0674   -0.0000 C   0  0  0  0  0  0  0  0  0  0  0  0
    7.9921   -2.7473   -0.0000 C   0  0  0  0  0  0  0  0  0  0  0  0
    8.0040   -5.3638   -0.0000 C   0  0  0  0  0  0  0  0  0  0  0  0
    9.4907   -2.7235   -0.0000 C   0  0  0  0  0  0  0  0  0  0  0  0
    9.4907   -5.3400   -0.0000 C   0  0  0  0  0  0  0  0  0  0  0  0
   10.2518   -4.0199   -0.0000 C   0  0  0  0  0  0  0  0  0  0  0  0
  1  2  1  0  0  0  0
  2  3  2  0  0  0  0
  2  4  1  0  0  0  0
  3  5  1  0  0  0  0
  4  6  2  0  0  0  0
  5  7  1  0  0  0  0
  5  8  2  0  0  0  0
  7  9  2  0  0  0  0
  7 10  1  0  0  0  0
  8 11  1  0  0  0  0
 10 12  2  0  0  0  0
 11 13  1  0  0  0  0
 13 14  1  0  0  0  0
 14 15  2  0  0  0  0
 14 16  1  0  0  0  0
 15 17  1  0  0  0  0
 16 18  2  0  0  0  0
 17 19  2  0  0  0  0
  6  8  1  0  0  0  0
 10 11  1  0  0  0  0
 18 19  1  0  0  0  0
M  END
>  <MolRegNo>
194698

>  <m>
=

>  <Value>
50119

>  <Unit>
nM

>  <Type>
Ki

>  <Ligand Efficiency>


>  <Binding Efficiency>


>  <Surface Efficiency>


>  <Assay Index>
262886

>  <Assay Category>


>  <Assay Organism>
SARS coronavirus

>  <Target ID>
20012

>  <Target Name>
SARS coronavirus 3C-like proteinase

>  <Target Organism>
SARS coronavirus

>  <Target Description>
Target is a single protein chain

>  <Sequence Accession>
P0C6U8

>  <Reference>
J. Med. Chem. 49 (12), 3440-3443 (2006)

>  <Pubmed ID>
16759084

>  <DOI>
10.1021/jm0602357

>  <InChI-Key>
GXSCFBFBNQZZJL-UHFFFAOYSA-N

>  <Molecular Formula>
C15H10NO2I

>  <Monoisotopic Mass>
362.975627

>  <Druglikeness>
0.55214

$$$$
Compound 204
Actelion Java MolfileCreator 1.0

 19 21  0  0  0  0  0  0  0  0999 V2000
    0.0000   -0.0000   -0.0000 I   0  0  0  0  0  0  0  0  0  0  0  0
    1.2963   -0.7374   -0.0000 C   0  0  0  0  0  0  0  0  0  0  0  0
    2.6046    0.0238   -0.0000 C   0  0  0  0  0  0  0  0  0  0  0  0
    1.2845   -2.2359   -0.0000 C   0  0  0  0  0  0  0  0  0  0  0  0
    3.9009   -0.7136   -0.0000 C   0  0  0  0  0  0  0  0  0  0  0  0
    2.5927   -2.9733   -0.0000 C   0  0  0  0  0  0  0  0  0  0  0  0
    5.3162   -0.2379   -0.0000 C   0  0  0  0  0  0  0  0  0  0  0  0
    3.8890   -2.2121   -0.0000 C   0  0  0  0  0  0  0  0  0  0  0  0
    5.7800    1.2131   -0.0000 O   0  0  0  0  0  0  0  0  0  0  0  0
    6.1963   -1.4510   -0.0000 C   0  0  0  0  0  0  0  0  0  0  0  0
    5.3043   -2.6522   -0.0000 N   0  0  0  0  0  0  0  0  0  0  0  0
    7.6948   -1.4510   -0.0000 O   0  0  0  0  0  0  0  0  0  0  0  0
    5.7681   -4.0793   -0.0000 C   0  0  0  0  0  0  0  0  0  0  0  0
    7.2667   -4.0674   -0.0000 C   0  0  0  0  0  0  0  0  0  0  0  0
    7.9921   -2.7473   -0.0000 C   0  0  0  0  0  0  0  0  0  0  0  0
    8.0040   -5.3638   -0.0000 C   0  0  0  0  0  0  0  0  0  0  0  0
    9.4907   -2.7235   -0.0000 C   0  0  0  0  0  0  0  0  0  0  0  0
    9.4907   -5.3400   -0.0000 C   0  0  0  0  0  0  0  0  0  0  0  0
   10.2518   -4.0199   -0.0000 C   0  0  0  0  0  0  0  0  0  0  0  0
  1  2  1  0  0  0  0
  2  3  2  0  0  0  0
  2  4  1  0  0  0  0
  3  5  1  0  0  0  0
  4  6  2  0  0  0  0
  5  7  1  0  0  0  0
  5  8  2  0  0  0  0
  7  9  2  0  0  0  0
  7 10  1  0  0  0  0
  8 11  1  0  0  0  0
 10 12  2  0  0  0  0
 11 13  1  0  0  0  0
 13 14  1  0  0  0  0
 14 15  2  0  0  0  0
 14 16  1  0  0  0  0
 15 17  1  0  0  0  0
 16 18  2  0  0  0  0
 17 19  2  0  0  0  0
  6  8  1  0  0  0  0
 10 11  1  0  0  0  0
 18 19  1  0  0  0  0
M  END
>  <MolRegNo>
194698

>  <m>
=

>  <Value>
50000

>  <Unit>
nM

>  <Type>
Ki

>  <Ligand Efficiency>
0.31

>  <Binding Efficiency>
11.84

>  <Surface Efficiency>
11.51

>  <Assay Index>
262886

>  <Assay Category>


>  <Assay Organism>
SARS coronavirus

>  <Target ID>
20012

>  <Target Name>
SARS coronavirus 3C-like proteinase

>  <Target Organism>
SARS coronavirus

>  <Target Description>
Target is a single protein chain

>  <Sequence Accession>
P0C6U8

>  <Reference>
J. Med. Chem. 49 (12), 3440-3443 (2006)

>  <Pubmed ID>
16759084

>  <DOI>
10.1021/jm0602357

>  <InChI-Key>
GXSCFBFBNQZZJL-UHFFFAOYSA-N

>  <Molecular Formula>
C15H10NO2I

>  <Monoisotopic Mass>
362.975627

>  <Druglikeness>
0.55214

$$$$
Compound 205
Actelion Java MolfileCreator 1.0

 21 24  0  0  0  0  0  0  0  0999 V2000
    0.0000   -0.0000   -0.0000 O   0  0  0  0  0  0  0  0  0  0  0  0
    1.2985   -0.7267   -0.0000 C   0  0  0  0  0  0  0  0  0  0  0  0
    1.2985   -2.2158   -0.0000 C   0  0  0  0  0  0  0  0  0  0  0  0
    2.5851    0.0477   -0.0000 C   0  0  0  0  0  0  0  0  0  0  0  0
   -0.0119   -2.9544   -0.0000 C   0  0  0  0  0  0  0  0  0  0  0  0
    2.5970   -2.9425   -0.0000 C   0  0  0  0  0  0  0  0  0  0  0  0
    2.5613    1.5606   -0.0000 O   0  0  0  0  0  0  0  0  0  0  0  0
    3.8836   -0.6790   -0.0000 C   0  0  0  0  0  0  0  0  0  0  0  0
   -0.0119   -4.4554   -0.0000 C   0  0  0  0  0  0  0  0  0  0  0  0
   -1.3342   -2.2039   -0.0000 C   0  0  0  0  0  0  0  0  0  0  0  0
    3.8717   -2.1801   -0.0000 C   0  0  0  0  0  0  0  0  0  0  0  0
    2.5851   -4.4316   -0.0000 C   0  0  0  0  0  0  0  0  0  0  0  0
    5.3012   -0.2025   -0.0000 C   0  0  0  0  0  0  0  0  0  0  0  0
   -1.3223   -5.2178   -0.0000 C   0  0  0  0  0  0  0  0  0  0  0  0
    1.2747   -5.1821   -0.0000 C   0  0  0  0  0  0  0  0  0  0  0  0
   -2.6447   -2.9544   -0.0000 C   0  0  0  0  0  0  0  0  0  0  0  0
    5.2893   -2.6327   -0.0000 O   0  0  0  0  0  0  0  0  0  0  0  0
    6.1709   -1.4057   -0.0000 C   0  0  0  0  0  0  0  0  0  0  0  0
    5.7539    1.2389   -0.0000 C   0  0  0  0  0  0  0  0  0  0  0  0
   -2.6566   -4.4554   -0.0000 C   0  0  0  0  0  0  0  0  0  0  0  0
   -1.3223   -6.7069   -0.0000 C   0  0  0  0  0  0  0  0  0  0  0  0
  1  2  2  0  0  0  0
  2  3  1  0  0  0  0
  2  4  1  0  0  0  0
  3  5  1  0  0  0  0
  3  6  2  0  0  0  0
  4  7  2  0  0  0  0
  4  8  1  0  0  0  0
  5  9  1  0  0  0  0
  5 10  2  0  0  0  0
  6 11  1  0  0  0  0
  6 12  1  0  0  0  0
  8 13  1  0  0  0  0
  9 14  2  0  0  0  0
  9 15  1  0  0  0  0
 10 16  1  0  0  0  0
 11 17  1  0  0  0  0
 13 18  1  0  0  0  0
 13 19  1  1  0  0  0
 14 20  1  0  0  0  0
 14 21  1  0  0  0  0
  8 11  2  0  0  0  0
 12 15  2  0  0  0  0
 16 20  2  0  0  0  0
 17 18  1  0  0  0  0
M  END
>  <MolRegNo>
382969

>  <m>
=

>  <Value>
14400

>  <Unit>
nM

>  <Type>
IC50

>  <Ligand Efficiency>
0.31

>  <Binding Efficiency>
17.40

>  <Surface Efficiency>
11.16

>  <Assay Index>
678191

>  <Assay Category>


>  <Assay Organism>
SARS coronavirus

>  <Target ID>
20012

>  <Target Name>
SARS coronavirus 3C-like proteinase

>  <Target Organism>
SARS coronavirus

>  <Target Description>
Target is a single protein chain

>  <Sequence Accession>
P0C6U8

>  <Reference>
Bioorg. Med. Chem. 20 (19), 5928-5935 (2012)

>  <Pubmed ID>
22884354

>  <DOI>
10.1016/j.bmc.2012.07.038

>  <InChI-Key>
HARGZZNYNSYSGJ-JTQLQIEISA-N

>  <Molecular Formula>
C18H14O3

>  <Monoisotopic Mass>
278.094295

>  <Druglikeness>
-3.1135

$$$$
Compound 206
Actelion Java MolfileCreator 1.0

 21 24  0  0  0  0  0  0  0  0999 V2000
    0.0000   -0.0000   -0.0000 O   0  0  0  0  0  0  0  0  0  0  0  0
    1.2985   -0.7267   -0.0000 C   0  0  0  0  0  0  0  0  0  0  0  0
    1.2985   -2.2158   -0.0000 C   0  0  0  0  0  0  0  0  0  0  0  0
    2.5851    0.0477   -0.0000 C   0  0  0  0  0  0  0  0  0  0  0  0
   -0.0119   -2.9544   -0.0000 C   0  0  0  0  0  0  0  0  0  0  0  0
    2.5970   -2.9425   -0.0000 C   0  0  0  0  0  0  0  0  0  0  0  0
    2.5613    1.5606   -0.0000 O   0  0  0  0  0  0  0  0  0  0  0  0
    3.8836   -0.6790   -0.0000 C   0  0  0  0  0  0  0  0  0  0  0  0
   -0.0119   -4.4554   -0.0000 C   0  0  0  0  0  0  0  0  0  0  0  0
   -1.3342   -2.2039   -0.0000 C   0  0  0  0  0  0  0  0  0  0  0  0
    3.8717   -2.1801   -0.0000 C   0  0  0  0  0  0  0  0  0  0  0  0
    2.5851   -4.4316   -0.0000 C   0  0  0  0  0  0  0  0  0  0  0  0
    5.3012   -0.2025   -0.0000 C   0  0  0  0  0  0  0  0  0  0  0  0
   -1.3223   -5.2178   -0.0000 C   0  0  0  0  0  0  0  0  0  0  0  0
    1.2747   -5.1821   -0.0000 C   0  0  0  0  0  0  0  0  0  0  0  0
   -2.6447   -2.9544   -0.0000 C   0  0  0  0  0  0  0  0  0  0  0  0
    5.2893   -2.6327   -0.0000 O   0  0  0  0  0  0  0  0  0  0  0  0
    6.1709   -1.4057   -0.0000 C   0  0  0  0  0  0  0  0  0  0  0  0
    5.7539    1.2389   -0.0000 C   0  0  0  0  0  0  0  0  0  0  0  0
   -2.6566   -4.4554   -0.0000 C   0  0  0  0  0  0  0  0  0  0  0  0
   -1.3223   -6.7069   -0.0000 C   0  0  0  0  0  0  0  0  0  0  0  0
  1  2  2  0  0  0  0
  2  3  1  0  0  0  0
  2  4  1  0  0  0  0
  3  5  1  0  0  0  0
  3  6  2  0  0  0  0
  4  7  2  0  0  0  0
  4  8  1  0  0  0  0
  5  9  1  0  0  0  0
  5 10  2  0  0  0  0
  6 11  1  0  0  0  0
  6 12  1  0  0  0  0
  8 13  1  0  0  0  0
  9 14  2  0  0  0  0
  9 15  1  0  0  0  0
 10 16  1  0  0  0  0
 11 17  1  0  0  0  0
 13 18  1  0  0  0  0
 13 19  1  1  0  0  0
 14 20  1  0  0  0  0
 14 21  1  0  0  0  0
  8 11  2  0  0  0  0
 12 15  2  0  0  0  0
 16 20  2  0  0  0  0
 17 18  1  0  0  0  0
M  END
>  <MolRegNo>
382969

>  <m>
=

>  <Value>
10700

>  <Unit>
nM

>  <Type>
IC50

>  <Ligand Efficiency>
0.32

>  <Binding Efficiency>
17.86

>  <Surface Efficiency>
11.46

>  <Assay Index>
678310

>  <Assay Category>


>  <Assay Organism>
SARS coronavirus

>  <Target ID>
20012

>  <Target Name>
SARS coronavirus 3C-like proteinase

>  <Target Organism>
SARS coronavirus

>  <Target Description>
Target is a single protein chain

>  <Sequence Accession>
P0C6U8

>  <Reference>
Bioorg. Med. Chem. 20 (19), 5928-5935 (2012)

>  <Pubmed ID>
22884354

>  <DOI>
10.1016/j.bmc.2012.07.038

>  <InChI-Key>
HARGZZNYNSYSGJ-JTQLQIEISA-N

>  <Molecular Formula>
C18H14O3

>  <Monoisotopic Mass>
278.094295

>  <Druglikeness>
-3.1135

$$$$
Compound 207
Actelion Java MolfileCreator 1.0

 21 24  0  0  0  0  0  0  0  0999 V2000
    0.0000   -0.0000   -0.0000 O   0  0  0  0  0  0  0  0  0  0  0  0
    1.2985   -0.7267   -0.0000 C   0  0  0  0  0  0  0  0  0  0  0  0
    1.2985   -2.2158   -0.0000 C   0  0  0  0  0  0  0  0  0  0  0  0
    2.5851    0.0477   -0.0000 C   0  0  0  0  0  0  0  0  0  0  0  0
   -0.0119   -2.9544   -0.0000 C   0  0  0  0  0  0  0  0  0  0  0  0
    2.5970   -2.9425   -0.0000 C   0  0  0  0  0  0  0  0  0  0  0  0
    2.5613    1.5606   -0.0000 O   0  0  0  0  0  0  0  0  0  0  0  0
    3.8836   -0.6790   -0.0000 C   0  0  0  0  0  0  0  0  0  0  0  0
   -0.0119   -4.4554   -0.0000 C   0  0  0  0  0  0  0  0  0  0  0  0
   -1.3342   -2.2039   -0.0000 C   0  0  0  0  0  0  0  0  0  0  0  0
    3.8717   -2.1801   -0.0000 C   0  0  0  0  0  0  0  0  0  0  0  0
    2.5851   -4.4316   -0.0000 C   0  0  0  0  0  0  0  0  0  0  0  0
    5.3012   -0.2025   -0.0000 C   0  0  0  0  0  0  0  0  0  0  0  0
   -1.3223   -5.2178   -0.0000 C   0  0  0  0  0  0  0  0  0  0  0  0
    1.2747   -5.1821   -0.0000 C   0  0  0  0  0  0  0  0  0  0  0  0
   -2.6447   -2.9544   -0.0000 C   0  0  0  0  0  0  0  0  0  0  0  0
    5.2893   -2.6327   -0.0000 O   0  0  0  0  0  0  0  0  0  0  0  0
    6.1709   -1.4057   -0.0000 C   0  0  0  0  0  0  0  0  0  0  0  0
    5.7539    1.2389   -0.0000 C   0  0  0  0  0  0  0  0  0  0  0  0
   -2.6566   -4.4554   -0.0000 C   0  0  0  0  0  0  0  0  0  0  0  0
   -1.3223   -6.7069   -0.0000 C   0  0  0  0  0  0  0  0  0  0  0  0
  1  2  2  0  0  0  0
  2  3  1  0  0  0  0
  2  4  1  0  0  0  0
  3  5  1  0  0  0  0
  3  6  2  0  0  0  0
  4  7  2  0  0  0  0
  4  8  1  0  0  0  0
  5  9  1  0  0  0  0
  5 10  2  0  0  0  0
  6 11  1  0  0  0  0
  6 12  1  0  0  0  0
  8 13  1  0  0  0  0
  9 14  2  0  0  0  0
  9 15  1  0  0  0  0
 10 16  1  0  0  0  0
 11 17  1  0  0  0  0
 13 18  1  0  0  0  0
 13 19  1  1  0  0  0
 14 20  1  0  0  0  0
 14 21  1  0  0  0  0
  8 11  2  0  0  0  0
 12 15  2  0  0  0  0
 16 20  2  0  0  0  0
 17 18  1  0  0  0  0
M  END
>  <MolRegNo>
382969

>  <m>
=

>  <Value>
4900

>  <Unit>
nM

>  <Type>
IC50

>  <Ligand Efficiency>
0.35

>  <Binding Efficiency>
19.08

>  <Surface Efficiency>
12.24

>  <Assay Index>
678190

>  <Assay Category>


>  <Assay Organism>
SARS coronavirus

>  <Target ID>
20012

>  <Target Name>
SARS coronavirus 3C-like proteinase

>  <Target Organism>
SARS coronavirus

>  <Target Description>
Target is a single protein chain

>  <Sequence Accession>
P0C6U8

>  <Reference>
Bioorg. Med. Chem. 20 (19), 5928-5935 (2012)

>  <Pubmed ID>
22884354

>  <DOI>
10.1016/j.bmc.2012.07.038

>  <InChI-Key>
HARGZZNYNSYSGJ-JTQLQIEISA-N

>  <Molecular Formula>
C18H14O3

>  <Monoisotopic Mass>
278.094295

>  <Druglikeness>
-3.1135

$$$$
Compound 208
Actelion Java MolfileCreator 1.0

 21 24  0  0  0  0  0  0  0  0999 V2000
    0.0000   -0.0000   -0.0000 O   0  0  0  0  0  0  0  0  0  0  0  0
    1.2985   -0.7267   -0.0000 C   0  0  0  0  0  0  0  0  0  0  0  0
    1.2985   -2.2158   -0.0000 C   0  0  0  0  0  0  0  0  0  0  0  0
    2.5851    0.0477   -0.0000 C   0  0  0  0  0  0  0  0  0  0  0  0
   -0.0119   -2.9544   -0.0000 C   0  0  0  0  0  0  0  0  0  0  0  0
    2.5970   -2.9425   -0.0000 C   0  0  0  0  0  0  0  0  0  0  0  0
    2.5613    1.5606   -0.0000 O   0  0  0  0  0  0  0  0  0  0  0  0
    3.8836   -0.6790   -0.0000 C   0  0  0  0  0  0  0  0  0  0  0  0
   -0.0119   -4.4554   -0.0000 C   0  0  0  0  0  0  0  0  0  0  0  0
   -1.3342   -2.2039   -0.0000 C   0  0  0  0  0  0  0  0  0  0  0  0
    3.8717   -2.1801   -0.0000 C   0  0  0  0  0  0  0  0  0  0  0  0
    2.5851   -4.4316   -0.0000 C   0  0  0  0  0  0  0  0  0  0  0  0
    5.3012   -0.2025   -0.0000 C   0  0  0  0  0  0  0  0  0  0  0  0
   -1.3223   -5.2178   -0.0000 C   0  0  0  0  0  0  0  0  0  0  0  0
    1.2747   -5.1821   -0.0000 C   0  0  0  0  0  0  0  0  0  0  0  0
   -2.6447   -2.9544   -0.0000 C   0  0  0  0  0  0  0  0  0  0  0  0
    5.2893   -2.6327   -0.0000 O   0  0  0  0  0  0  0  0  0  0  0  0
    6.1709   -1.4057   -0.0000 C   0  0  0  0  0  0  0  0  0  0  0  0
    5.7539    1.2389   -0.0000 C   0  0  0  0  0  0  0  0  0  0  0  0
   -2.6566   -4.4554   -0.0000 C   0  0  0  0  0  0  0  0  0  0  0  0
   -1.3223   -6.7069   -0.0000 C   0  0  0  0  0  0  0  0  0  0  0  0
  1  2  2  0  0  0  0
  2  3  1  0  0  0  0
  2  4  1  0  0  0  0
  3  5  1  0  0  0  0
  3  6  2  0  0  0  0
  4  7  2  0  0  0  0
  4  8  1  0  0  0  0
  5  9  1  0  0  0  0
  5 10  2  0  0  0  0
  6 11  1  0  0  0  0
  6 12  1  0  0  0  0
  8 13  1  0  0  0  0
  9 14  2  0  0  0  0
  9 15  1  0  0  0  0
 10 16  1  0  0  0  0
 11 17  1  0  0  0  0
 13 18  1  0  0  0  0
 13 19  1  1  0  0  0
 14 20  1  0  0  0  0
 14 21  1  0  0  0  0
  8 11  2  0  0  0  0
 12 15  2  0  0  0  0
 16 20  2  0  0  0  0
 17 18  1  0  0  0  0
M  END
>  <MolRegNo>
382969

>  <m>
=

>  <Value>
1200

>  <Unit>
nM

>  <Type>
IC50

>  <Ligand Efficiency>
0.39

>  <Binding Efficiency>
21.27

>  <Surface Efficiency>
13.65

>  <Assay Index>
678193

>  <Assay Category>


>  <Assay Organism>
SARS coronavirus

>  <Target ID>
20012

>  <Target Name>
SARS coronavirus 3C-like proteinase

>  <Target Organism>
SARS coronavirus

>  <Target Description>
Target is a single protein chain

>  <Sequence Accession>
P0C6U8

>  <Reference>
Bioorg. Med. Chem. 20 (19), 5928-5935 (2012)

>  <Pubmed ID>
22884354

>  <DOI>
10.1016/j.bmc.2012.07.038

>  <InChI-Key>
HARGZZNYNSYSGJ-JTQLQIEISA-N

>  <Molecular Formula>
C18H14O3

>  <Monoisotopic Mass>
278.094295

>  <Druglikeness>
-3.1135

$$$$
Compound 209
Actelion Java MolfileCreator 1.0

 21 24  0  0  0  0  0  0  0  0999 V2000
    0.0000   -0.0000   -0.0000 O   0  0  0  0  0  0  0  0  0  0  0  0
    1.2985   -0.7267   -0.0000 C   0  0  0  0  0  0  0  0  0  0  0  0
    1.2985   -2.2158   -0.0000 C   0  0  0  0  0  0  0  0  0  0  0  0
    2.5851    0.0477   -0.0000 C   0  0  0  0  0  0  0  0  0  0  0  0
   -0.0119   -2.9544   -0.0000 C   0  0  0  0  0  0  0  0  0  0  0  0
    2.5970   -2.9425   -0.0000 C   0  0  0  0  0  0  0  0  0  0  0  0
    2.5613    1.5606   -0.0000 O   0  0  0  0  0  0  0  0  0  0  0  0
    3.8836   -0.6790   -0.0000 C   0  0  0  0  0  0  0  0  0  0  0  0
   -0.0119   -4.4554   -0.0000 C   0  0  0  0  0  0  0  0  0  0  0  0
   -1.3342   -2.2039   -0.0000 C   0  0  0  0  0  0  0  0  0  0  0  0
    3.8717   -2.1801   -0.0000 C   0  0  0  0  0  0  0  0  0  0  0  0
    2.5851   -4.4316   -0.0000 C   0  0  0  0  0  0  0  0  0  0  0  0
    5.3012   -0.2025   -0.0000 C   0  0  0  0  0  0  0  0  0  0  0  0
   -1.3223   -5.2178   -0.0000 C   0  0  0  0  0  0  0  0  0  0  0  0
    1.2747   -5.1821   -0.0000 C   0  0  0  0  0  0  0  0  0  0  0  0
   -2.6447   -2.9544   -0.0000 C   0  0  0  0  0  0  0  0  0  0  0  0
    5.2893   -2.6327   -0.0000 O   0  0  0  0  0  0  0  0  0  0  0  0
    6.1709   -1.4057   -0.0000 C   0  0  0  0  0  0  0  0  0  0  0  0
    5.7539    1.2389   -0.0000 C   0  0  0  0  0  0  0  0  0  0  0  0
   -2.6566   -4.4554   -0.0000 C   0  0  0  0  0  0  0  0  0  0  0  0
   -1.3223   -6.7069   -0.0000 C   0  0  0  0  0  0  0  0  0  0  0  0
  1  2  2  0  0  0  0
  2  3  1  0  0  0  0
  2  4  1  0  0  0  0
  3  5  1  0  0  0  0
  3  6  2  0  0  0  0
  4  7  2  0  0  0  0
  4  8  1  0  0  0  0
  5  9  1  0  0  0  0
  5 10  2  0  0  0  0
  6 11  1  0  0  0  0
  6 12  1  0  0  0  0
  8 13  1  0  0  0  0
  9 14  2  0  0  0  0
  9 15  1  0  0  0  0
 10 16  1  0  0  0  0
 11 17  1  0  0  0  0
 13 18  1  0  0  0  0
 13 19  1  1  0  0  0
 14 20  1  0  0  0  0
 14 21  1  0  0  0  0
  8 11  2  0  0  0  0
 12 15  2  0  0  0  0
 16 20  2  0  0  0  0
 17 18  1  0  0  0  0
M  END
>  <MolRegNo>
382969

>  <m>


>  <Value>
0

>  <Unit>


>  <Type>
Inhibition

>  <Ligand Efficiency>


>  <Binding Efficiency>


>  <Surface Efficiency>


>  <Assay Index>
678307

>  <Assay Category>


>  <Assay Organism>
SARS coronavirus

>  <Target ID>
20012

>  <Target Name>
SARS coronavirus 3C-like proteinase

>  <Target Organism>
SARS coronavirus

>  <Target Description>
Target is a single protein chain

>  <Sequence Accession>
P0C6U8

>  <Reference>
Bioorg. Med. Chem. 20 (19), 5928-5935 (2012)

>  <Pubmed ID>
22884354

>  <DOI>
10.1016/j.bmc.2012.07.038

>  <InChI-Key>
HARGZZNYNSYSGJ-JTQLQIEISA-N

>  <Molecular Formula>
C18H14O3

>  <Monoisotopic Mass>
278.094295

>  <Druglikeness>
-3.1135

$$$$
Compound 210
Actelion Java MolfileCreator 1.0

 21 24  0  0  0  0  0  0  0  0999 V2000
    0.0000   -0.0000   -0.0000 O   0  0  0  0  0  0  0  0  0  0  0  0
    1.2985   -0.7267   -0.0000 C   0  0  0  0  0  0  0  0  0  0  0  0
    1.2985   -2.2158   -0.0000 C   0  0  0  0  0  0  0  0  0  0  0  0
    2.5851    0.0477   -0.0000 C   0  0  0  0  0  0  0  0  0  0  0  0
   -0.0119   -2.9544   -0.0000 C   0  0  0  0  0  0  0  0  0  0  0  0
    2.5970   -2.9425   -0.0000 C   0  0  0  0  0  0  0  0  0  0  0  0
    2.5613    1.5606   -0.0000 O   0  0  0  0  0  0  0  0  0  0  0  0
    3.8836   -0.6790   -0.0000 C   0  0  0  0  0  0  0  0  0  0  0  0
   -0.0119   -4.4554   -0.0000 C   0  0  0  0  0  0  0  0  0  0  0  0
   -1.3342   -2.2039   -0.0000 C   0  0  0  0  0  0  0  0  0  0  0  0
    3.8717   -2.1801   -0.0000 C   0  0  0  0  0  0  0  0  0  0  0  0
    2.5851   -4.4316   -0.0000 C   0  0  0  0  0  0  0  0  0  0  0  0
    5.3012   -0.2025   -0.0000 C   0  0  0  0  0  0  0  0  0  0  0  0
   -1.3223   -5.2178   -0.0000 C   0  0  0  0  0  0  0  0  0  0  0  0
    1.2747   -5.1821   -0.0000 C   0  0  0  0  0  0  0  0  0  0  0  0
   -2.6447   -2.9544   -0.0000 C   0  0  0  0  0  0  0  0  0  0  0  0
    5.2893   -2.6327   -0.0000 O   0  0  0  0  0  0  0  0  0  0  0  0
    6.1709   -1.4057   -0.0000 C   0  0  0  0  0  0  0  0  0  0  0  0
    5.7539    1.2389   -0.0000 C   0  0  0  0  0  0  0  0  0  0  0  0
   -2.6566   -4.4554   -0.0000 C   0  0  0  0  0  0  0  0  0  0  0  0
   -1.3223   -6.7069   -0.0000 C   0  0  0  0  0  0  0  0  0  0  0  0
  1  2  2  0  0  0  0
  2  3  1  0  0  0  0
  2  4  1  0  0  0  0
  3  5  1  0  0  0  0
  3  6  2  0  0  0  0
  4  7  2  0  0  0  0
  4  8  1  0  0  0  0
  5  9  1  0  0  0  0
  5 10  2  0  0  0  0
  6 11  1  0  0  0  0
  6 12  1  0  0  0  0
  8 13  1  0  0  0  0
  9 14  2  0  0  0  0
  9 15  1  0  0  0  0
 10 16  1  0  0  0  0
 11 17  1  0  0  0  0
 13 18  1  0  0  0  0
 13 19  1  1  0  0  0
 14 20  1  0  0  0  0
 14 21  1  0  0  0  0
  8 11  2  0  0  0  0
 12 15  2  0  0  0  0
 16 20  2  0  0  0  0
 17 18  1  0  0  0  0
M  END
>  <MolRegNo>
382969

>  <m>


>  <Value>
0

>  <Unit>


>  <Type>
Inhibition

>  <Ligand Efficiency>


>  <Binding Efficiency>


>  <Surface Efficiency>


>  <Assay Index>
678308

>  <Assay Category>


>  <Assay Organism>
SARS coronavirus

>  <Target ID>
20012

>  <Target Name>
SARS coronavirus 3C-like proteinase

>  <Target Organism>
SARS coronavirus

>  <Target Description>
Target is a single protein chain

>  <Sequence Accession>
P0C6U8

>  <Reference>
Bioorg. Med. Chem. 20 (19), 5928-5935 (2012)

>  <Pubmed ID>
22884354

>  <DOI>
10.1016/j.bmc.2012.07.038

>  <InChI-Key>
HARGZZNYNSYSGJ-JTQLQIEISA-N

>  <Molecular Formula>
C18H14O3

>  <Monoisotopic Mass>
278.094295

>  <Druglikeness>
-3.1135

$$$$
Compound 211
Actelion Java MolfileCreator 1.0

 21 24  0  0  0  0  0  0  0  0999 V2000
    0.0000   -0.0000   -0.0000 O   0  0  0  0  0  0  0  0  0  0  0  0
    1.2985   -0.7267   -0.0000 C   0  0  0  0  0  0  0  0  0  0  0  0
    1.2985   -2.2158   -0.0000 C   0  0  0  0  0  0  0  0  0  0  0  0
    2.5851    0.0477   -0.0000 C   0  0  0  0  0  0  0  0  0  0  0  0
   -0.0119   -2.9544   -0.0000 C   0  0  0  0  0  0  0  0  0  0  0  0
    2.5970   -2.9425   -0.0000 C   0  0  0  0  0  0  0  0  0  0  0  0
    2.5613    1.5606   -0.0000 O   0  0  0  0  0  0  0  0  0  0  0  0
    3.8836   -0.6790   -0.0000 C   0  0  0  0  0  0  0  0  0  0  0  0
   -0.0119   -4.4554   -0.0000 C   0  0  0  0  0  0  0  0  0  0  0  0
   -1.3342   -2.2039   -0.0000 C   0  0  0  0  0  0  0  0  0  0  0  0
    3.8717   -2.1801   -0.0000 C   0  0  0  0  0  0  0  0  0  0  0  0
    2.5851   -4.4316   -0.0000 C   0  0  0  0  0  0  0  0  0  0  0  0
    5.3012   -0.2025   -0.0000 C   0  0  0  0  0  0  0  0  0  0  0  0
   -1.3223   -5.2178   -0.0000 C   0  0  0  0  0  0  0  0  0  0  0  0
    1.2747   -5.1821   -0.0000 C   0  0  0  0  0  0  0  0  0  0  0  0
   -2.6447   -2.9544   -0.0000 C   0  0  0  0  0  0  0  0  0  0  0  0
    5.2893   -2.6327   -0.0000 O   0  0  0  0  0  0  0  0  0  0  0  0
    6.1709   -1.4057   -0.0000 C   0  0  0  0  0  0  0  0  0  0  0  0
    5.7539    1.2389   -0.0000 C   0  0  0  0  0  0  0  0  0  0  0  0
   -2.6566   -4.4554   -0.0000 C   0  0  0  0  0  0  0  0  0  0  0  0
   -1.3223   -6.7069   -0.0000 C   0  0  0  0  0  0  0  0  0  0  0  0
  1  2  2  0  0  0  0
  2  3  1  0  0  0  0
  2  4  1  0  0  0  0
  3  5  1  0  0  0  0
  3  6  2  0  0  0  0
  4  7  2  0  0  0  0
  4  8  1  0  0  0  0
  5  9  1  0  0  0  0
  5 10  2  0  0  0  0
  6 11  1  0  0  0  0
  6 12  1  0  0  0  0
  8 13  1  0  0  0  0
  9 14  2  0  0  0  0
  9 15  1  0  0  0  0
 10 16  1  0  0  0  0
 11 17  1  0  0  0  0
 13 18  1  0  0  0  0
 13 19  1  1  0  0  0
 14 20  1  0  0  0  0
 14 21  1  0  0  0  0
  8 11  2  0  0  0  0
 12 15  2  0  0  0  0
 16 20  2  0  0  0  0
 17 18  1  0  0  0  0
M  END
>  <MolRegNo>
382969

>  <m>


>  <Value>
0

>  <Unit>


>  <Type>
Inhibition

>  <Ligand Efficiency>


>  <Binding Efficiency>


>  <Surface Efficiency>


>  <Assay Index>
678309

>  <Assay Category>


>  <Assay Organism>
SARS coronavirus

>  <Target ID>
20012

>  <Target Name>
SARS coronavirus 3C-like proteinase

>  <Target Organism>
SARS coronavirus

>  <Target Description>
Target is a single protein chain

>  <Sequence Accession>
P0C6U8

>  <Reference>
Bioorg. Med. Chem. 20 (19), 5928-5935 (2012)

>  <Pubmed ID>
22884354

>  <DOI>
10.1016/j.bmc.2012.07.038

>  <InChI-Key>
HARGZZNYNSYSGJ-JTQLQIEISA-N

>  <Molecular Formula>
C18H14O3

>  <Monoisotopic Mass>
278.094295

>  <Druglikeness>
-3.1135

$$$$
Compound 212
Actelion Java MolfileCreator 1.0

 21 24  0  0  0  0  0  0  0  0999 V2000
    0.0000   -0.0000   -0.0000 O   0  0  0  0  0  0  0  0  0  0  0  0
    1.2985   -0.7267   -0.0000 C   0  0  0  0  0  0  0  0  0  0  0  0
    1.2985   -2.2158   -0.0000 C   0  0  0  0  0  0  0  0  0  0  0  0
    2.5851    0.0477   -0.0000 C   0  0  0  0  0  0  0  0  0  0  0  0
   -0.0119   -2.9544   -0.0000 C   0  0  0  0  0  0  0  0  0  0  0  0
    2.5970   -2.9425   -0.0000 C   0  0  0  0  0  0  0  0  0  0  0  0
    2.5613    1.5606   -0.0000 O   0  0  0  0  0  0  0  0  0  0  0  0
    3.8836   -0.6790   -0.0000 C   0  0  0  0  0  0  0  0  0  0  0  0
   -0.0119   -4.4554   -0.0000 C   0  0  0  0  0  0  0  0  0  0  0  0
   -1.3342   -2.2039   -0.0000 C   0  0  0  0  0  0  0  0  0  0  0  0
    3.8717   -2.1801   -0.0000 C   0  0  0  0  0  0  0  0  0  0  0  0
    2.5851   -4.4316   -0.0000 C   0  0  0  0  0  0  0  0  0  0  0  0
    5.3012   -0.2025   -0.0000 C   0  0  0  0  0  0  0  0  0  0  0  0
   -1.3223   -5.2178   -0.0000 C   0  0  0  0  0  0  0  0  0  0  0  0
    1.2747   -5.1821   -0.0000 C   0  0  0  0  0  0  0  0  0  0  0  0
   -2.6447   -2.9544   -0.0000 C   0  0  0  0  0  0  0  0  0  0  0  0
    5.2893   -2.6327   -0.0000 O   0  0  0  0  0  0  0  0  0  0  0  0
    6.1709   -1.4057   -0.0000 C   0  0  0  0  0  0  0  0  0  0  0  0
    5.7539    1.2389   -0.0000 C   0  0  0  0  0  0  0  0  0  0  0  0
   -2.6566   -4.4554   -0.0000 C   0  0  0  0  0  0  0  0  0  0  0  0
   -1.3223   -6.7069   -0.0000 C   0  0  0  0  0  0  0  0  0  0  0  0
  1  2  2  0  0  0  0
  2  3  1  0  0  0  0
  2  4  1  0  0  0  0
  3  5  1  0  0  0  0
  3  6  2  0  0  0  0
  4  7  2  0  0  0  0
  4  8  1  0  0  0  0
  5  9  1  0  0  0  0
  5 10  2  0  0  0  0
  6 11  1  0  0  0  0
  6 12  1  0  0  0  0
  8 13  1  0  0  0  0
  9 14  2  0  0  0  0
  9 15  1  0  0  0  0
 10 16  1  0  0  0  0
 11 17  1  0  0  0  0
 13 18  1  0  0  0  0
 13 19  1  1  0  0  0
 14 20  1  0  0  0  0
 14 21  1  0  0  0  0
  8 11  2  0  0  0  0
 12 15  2  0  0  0  0
 16 20  2  0  0  0  0
 17 18  1  0  0  0  0
M  END
>  <MolRegNo>
382969

>  <m>


>  <Value>
0

>  <Unit>


>  <Type>
Inhibition

>  <Ligand Efficiency>


>  <Binding Efficiency>


>  <Surface Efficiency>


>  <Assay Index>
678312

>  <Assay Category>


>  <Assay Organism>
SARS coronavirus

>  <Target ID>
20012

>  <Target Name>
SARS coronavirus 3C-like proteinase

>  <Target Organism>
SARS coronavirus

>  <Target Description>
Target is a single protein chain

>  <Sequence Accession>
P0C6U8

>  <Reference>
Bioorg. Med. Chem. 20 (19), 5928-5935 (2012)

>  <Pubmed ID>
22884354

>  <DOI>
10.1016/j.bmc.2012.07.038

>  <InChI-Key>
HARGZZNYNSYSGJ-JTQLQIEISA-N

>  <Molecular Formula>
C18H14O3

>  <Monoisotopic Mass>
278.094295

>  <Druglikeness>
-3.1135

$$$$
Compound 213
Actelion Java MolfileCreator 1.0

 21 24  0  0  0  0  0  0  0  0999 V2000
    0.0000   -0.0000   -0.0000 O   0  0  0  0  0  0  0  0  0  0  0  0
    1.2985   -0.7267   -0.0000 C   0  0  0  0  0  0  0  0  0  0  0  0
    1.2985   -2.2158   -0.0000 C   0  0  0  0  0  0  0  0  0  0  0  0
    2.5851    0.0477   -0.0000 C   0  0  0  0  0  0  0  0  0  0  0  0
   -0.0119   -2.9544   -0.0000 C   0  0  0  0  0  0  0  0  0  0  0  0
    2.5970   -2.9425   -0.0000 C   0  0  0  0  0  0  0  0  0  0  0  0
    2.5613    1.5606   -0.0000 O   0  0  0  0  0  0  0  0  0  0  0  0
    3.8836   -0.6790   -0.0000 C   0  0  0  0  0  0  0  0  0  0  0  0
   -0.0119   -4.4554   -0.0000 C   0  0  0  0  0  0  0  0  0  0  0  0
   -1.3342   -2.2039   -0.0000 C   0  0  0  0  0  0  0  0  0  0  0  0
    3.8717   -2.1801   -0.0000 C   0  0  0  0  0  0  0  0  0  0  0  0
    2.5851   -4.4316   -0.0000 C   0  0  0  0  0  0  0  0  0  0  0  0
    5.3012   -0.2025   -0.0000 C   0  0  0  0  0  0  0  0  0  0  0  0
   -1.3223   -5.2178   -0.0000 C   0  0  0  0  0  0  0  0  0  0  0  0
    1.2747   -5.1821   -0.0000 C   0  0  0  0  0  0  0  0  0  0  0  0
   -2.6447   -2.9544   -0.0000 C   0  0  0  0  0  0  0  0  0  0  0  0
    5.2893   -2.6327   -0.0000 O   0  0  0  0  0  0  0  0  0  0  0  0
    6.1709   -1.4057   -0.0000 C   0  0  0  0  0  0  0  0  0  0  0  0
    5.7539    1.2389   -0.0000 C   0  0  0  0  0  0  0  0  0  0  0  0
   -2.6566   -4.4554   -0.0000 C   0  0  0  0  0  0  0  0  0  0  0  0
   -1.3223   -6.7069   -0.0000 C   0  0  0  0  0  0  0  0  0  0  0  0
  1  2  2  0  0  0  0
  2  3  1  0  0  0  0
  2  4  1  0  0  0  0
  3  5  1  0  0  0  0
  3  6  2  0  0  0  0
  4  7  2  0  0  0  0
  4  8  1  0  0  0  0
  5  9  1  0  0  0  0
  5 10  2  0  0  0  0
  6 11  1  0  0  0  0
  6 12  1  0  0  0  0
  8 13  1  0  0  0  0
  9 14  2  0  0  0  0
  9 15  1  0  0  0  0
 10 16  1  0  0  0  0
 11 17  1  0  0  0  0
 13 18  1  0  0  0  0
 13 19  1  1  0  0  0
 14 20  1  0  0  0  0
 14 21  1  0  0  0  0
  8 11  2  0  0  0  0
 12 15  2  0  0  0  0
 16 20  2  0  0  0  0
 17 18  1  0  0  0  0
M  END
>  <MolRegNo>
382969

>  <m>


>  <Value>
0

>  <Unit>


>  <Type>
Inhibition

>  <Ligand Efficiency>


>  <Binding Efficiency>


>  <Surface Efficiency>


>  <Assay Index>
678313

>  <Assay Category>


>  <Assay Organism>
SARS coronavirus

>  <Target ID>
20012

>  <Target Name>
SARS coronavirus 3C-like proteinase

>  <Target Organism>
SARS coronavirus

>  <Target Description>
Target is a single protein chain

>  <Sequence Accession>
P0C6U8

>  <Reference>
Bioorg. Med. Chem. 20 (19), 5928-5935 (2012)

>  <Pubmed ID>
22884354

>  <DOI>
10.1016/j.bmc.2012.07.038

>  <InChI-Key>
HARGZZNYNSYSGJ-JTQLQIEISA-N

>  <Molecular Formula>
C18H14O3

>  <Monoisotopic Mass>
278.094295

>  <Druglikeness>
-3.1135

$$$$
Compound 214
Actelion Java MolfileCreator 1.0

 21 24  0  0  0  0  0  0  0  0999 V2000
    0.0000   -0.0000   -0.0000 O   0  0  0  0  0  0  0  0  0  0  0  0
    1.2985   -0.7267   -0.0000 C   0  0  0  0  0  0  0  0  0  0  0  0
    1.2985   -2.2158   -0.0000 C   0  0  0  0  0  0  0  0  0  0  0  0
    2.5851    0.0477   -0.0000 C   0  0  0  0  0  0  0  0  0  0  0  0
   -0.0119   -2.9544   -0.0000 C   0  0  0  0  0  0  0  0  0  0  0  0
    2.5970   -2.9425   -0.0000 C   0  0  0  0  0  0  0  0  0  0  0  0
    2.5613    1.5606   -0.0000 O   0  0  0  0  0  0  0  0  0  0  0  0
    3.8836   -0.6790   -0.0000 C   0  0  0  0  0  0  0  0  0  0  0  0
   -0.0119   -4.4554   -0.0000 C   0  0  0  0  0  0  0  0  0  0  0  0
   -1.3342   -2.2039   -0.0000 C   0  0  0  0  0  0  0  0  0  0  0  0
    3.8717   -2.1801   -0.0000 C   0  0  0  0  0  0  0  0  0  0  0  0
    2.5851   -4.4316   -0.0000 C   0  0  0  0  0  0  0  0  0  0  0  0
    5.3012   -0.2025   -0.0000 C   0  0  0  0  0  0  0  0  0  0  0  0
   -1.3223   -5.2178   -0.0000 C   0  0  0  0  0  0  0  0  0  0  0  0
    1.2747   -5.1821   -0.0000 C   0  0  0  0  0  0  0  0  0  0  0  0
   -2.6447   -2.9544   -0.0000 C   0  0  0  0  0  0  0  0  0  0  0  0
    5.2893   -2.6327   -0.0000 O   0  0  0  0  0  0  0  0  0  0  0  0
    6.1709   -1.4057   -0.0000 C   0  0  0  0  0  0  0  0  0  0  0  0
    5.7539    1.2389   -0.0000 C   0  0  0  0  0  0  0  0  0  0  0  0
   -2.6566   -4.4554   -0.0000 C   0  0  0  0  0  0  0  0  0  0  0  0
   -1.3223   -6.7069   -0.0000 C   0  0  0  0  0  0  0  0  0  0  0  0
  1  2  2  0  0  0  0
  2  3  1  0  0  0  0
  2  4  1  0  0  0  0
  3  5  1  0  0  0  0
  3  6  2  0  0  0  0
  4  7  2  0  0  0  0
  4  8  1  0  0  0  0
  5  9  1  0  0  0  0
  5 10  2  0  0  0  0
  6 11  1  0  0  0  0
  6 12  1  0  0  0  0
  8 13  1  0  0  0  0
  9 14  2  0  0  0  0
  9 15  1  0  0  0  0
 10 16  1  0  0  0  0
 11 17  1  0  0  0  0
 13 18  1  0  0  0  0
 13 19  1  1  0  0  0
 14 20  1  0  0  0  0
 14 21  1  0  0  0  0
  8 11  2  0  0  0  0
 12 15  2  0  0  0  0
 16 20  2  0  0  0  0
 17 18  1  0  0  0  0
M  END
>  <MolRegNo>
382969

>  <m>


>  <Value>
0

>  <Unit>


>  <Type>
Inhibition

>  <Ligand Efficiency>


>  <Binding Efficiency>


>  <Surface Efficiency>


>  <Assay Index>
678191

>  <Assay Category>


>  <Assay Organism>
SARS coronavirus

>  <Target ID>
20012

>  <Target Name>
SARS coronavirus 3C-like proteinase

>  <Target Organism>
SARS coronavirus

>  <Target Description>
Target is a single protein chain

>  <Sequence Accession>
P0C6U8

>  <Reference>
Bioorg. Med. Chem. 20 (19), 5928-5935 (2012)

>  <Pubmed ID>
22884354

>  <DOI>
10.1016/j.bmc.2012.07.038

>  <InChI-Key>
HARGZZNYNSYSGJ-JTQLQIEISA-N

>  <Molecular Formula>
C18H14O3

>  <Monoisotopic Mass>
278.094295

>  <Druglikeness>
-3.1135

$$$$
Compound 215
Actelion Java MolfileCreator 1.0

 21 24  0  0  0  0  0  0  0  0999 V2000
    0.0000   -0.0000   -0.0000 O   0  0  0  0  0  0  0  0  0  0  0  0
    1.2985   -0.7267   -0.0000 C   0  0  0  0  0  0  0  0  0  0  0  0
    1.2985   -2.2158   -0.0000 C   0  0  0  0  0  0  0  0  0  0  0  0
    2.5851    0.0477   -0.0000 C   0  0  0  0  0  0  0  0  0  0  0  0
   -0.0119   -2.9544   -0.0000 C   0  0  0  0  0  0  0  0  0  0  0  0
    2.5970   -2.9425   -0.0000 C   0  0  0  0  0  0  0  0  0  0  0  0
    2.5613    1.5606   -0.0000 O   0  0  0  0  0  0  0  0  0  0  0  0
    3.8836   -0.6790   -0.0000 C   0  0  0  0  0  0  0  0  0  0  0  0
   -0.0119   -4.4554   -0.0000 C   0  0  0  0  0  0  0  0  0  0  0  0
   -1.3342   -2.2039   -0.0000 C   0  0  0  0  0  0  0  0  0  0  0  0
    3.8717   -2.1801   -0.0000 C   0  0  0  0  0  0  0  0  0  0  0  0
    2.5851   -4.4316   -0.0000 C   0  0  0  0  0  0  0  0  0  0  0  0
    5.3012   -0.2025   -0.0000 C   0  0  0  0  0  0  0  0  0  0  0  0
   -1.3223   -5.2178   -0.0000 C   0  0  0  0  0  0  0  0  0  0  0  0
    1.2747   -5.1821   -0.0000 C   0  0  0  0  0  0  0  0  0  0  0  0
   -2.6447   -2.9544   -0.0000 C   0  0  0  0  0  0  0  0  0  0  0  0
    5.2893   -2.6327   -0.0000 O   0  0  0  0  0  0  0  0  0  0  0  0
    6.1709   -1.4057   -0.0000 C   0  0  0  0  0  0  0  0  0  0  0  0
    5.7539    1.2389   -0.0000 C   0  0  0  0  0  0  0  0  0  0  0  0
   -2.6566   -4.4554   -0.0000 C   0  0  0  0  0  0  0  0  0  0  0  0
   -1.3223   -6.7069   -0.0000 C   0  0  0  0  0  0  0  0  0  0  0  0
  1  2  2  0  0  0  0
  2  3  1  0  0  0  0
  2  4  1  0  0  0  0
  3  5  1  0  0  0  0
  3  6  2  0  0  0  0
  4  7  2  0  0  0  0
  4  8  1  0  0  0  0
  5  9  1  0  0  0  0
  5 10  2  0  0  0  0
  6 11  1  0  0  0  0
  6 12  1  0  0  0  0
  8 13  1  0  0  0  0
  9 14  2  0  0  0  0
  9 15  1  0  0  0  0
 10 16  1  0  0  0  0
 11 17  1  0  0  0  0
 13 18  1  0  0  0  0
 13 19  1  1  0  0  0
 14 20  1  0  0  0  0
 14 21  1  0  0  0  0
  8 11  2  0  0  0  0
 12 15  2  0  0  0  0
 16 20  2  0  0  0  0
 17 18  1  0  0  0  0
M  END
>  <MolRegNo>
382969

>  <m>
=

>  <Value>
11200

>  <Unit>
nM

>  <Type>
Ki

>  <Ligand Efficiency>
0.32

>  <Binding Efficiency>
17.79

>  <Surface Efficiency>
11.42

>  <Assay Index>
678192

>  <Assay Category>


>  <Assay Organism>
SARS coronavirus

>  <Target ID>
20012

>  <Target Name>
SARS coronavirus 3C-like proteinase

>  <Target Organism>
SARS coronavirus

>  <Target Description>
Target is a single protein chain

>  <Sequence Accession>
P0C6U8

>  <Reference>
Bioorg. Med. Chem. 20 (19), 5928-5935 (2012)

>  <Pubmed ID>
22884354

>  <DOI>
10.1016/j.bmc.2012.07.038

>  <InChI-Key>
HARGZZNYNSYSGJ-JTQLQIEISA-N

>  <Molecular Formula>
C18H14O3

>  <Monoisotopic Mass>
278.094295

>  <Druglikeness>
-3.1135

$$$$
Compound 216
Actelion Java MolfileCreator 1.0

 24 26  0  0  1  0  0  0  0  0999 V2000
    0.0000   -0.0000   -0.0000 O   0  0  0  0  0  0  0  0  0  0  0  0
   -0.0237   -1.4957   -0.0000 C   0  0  0  0  0  0  0  0  0  0  0  0
    1.2939    0.7597   -0.0000 C   0  0  0  0  0  0  0  0  0  0  0  0
   -1.3532   -2.2316   -0.0000 C   0  0  0  0  0  0  0  0  0  0  0  0
    1.2701   -2.2435   -0.0000 C   0  0  0  0  0  0  0  0  0  0  0  0
   -2.6590   -1.4601   -0.0000 O   0  0  0  0  0  0  0  0  0  0  0  0
   -1.3651   -3.7273   -0.0000 C   0  0  0  0  0  0  0  0  0  0  0  0
    1.2464   -3.7392   -0.0000 C   0  0  0  0  0  0  0  0  0  0  0  0
    2.5640   -1.4957   -0.0000 C   0  0  0  0  0  0  0  0  0  0  0  0
   -0.0712   -4.4751   -0.0000 C   0  0  0  0  0  0  0  0  0  0  0  0
   -2.6708   -4.4751   -0.0000 C   0  0  0  0  0  0  0  0  0  0  0  0
    3.8460   -2.2435   -0.0000 C   0  0  0  0  0  0  0  0  0  0  0  0
    2.5640    0.0237   -0.0000 C   0  0  0  0  0  0  0  0  0  0  0  0
   -0.0831   -5.9589   -0.0000 C   0  0  0  0  0  0  0  0  0  0  0  0
   -2.6827   -5.9708   -0.0000 C   0  0  0  0  0  0  0  0  0  0  0  0
   -3.9766   -3.7036   -0.0000 C   0  0  0  0  0  0  0  0  0  0  0  0
   -2.6946   -2.9557   -0.0000 C   0  0  0  0  0  0  0  0  0  0  0  0
    1.2108   -6.6949   -0.0000 O   0  0  0  0  0  0  0  0  0  0  0  0
   -1.4007   -6.6949   -0.0000 C   0  0  0  0  0  0  0  0  0  0  0  0
   -3.9885   -6.7068   -0.0000 C   0  0  0  0  0  0  0  0  0  0  0  0
   -5.2823   -4.4514   -0.0000 C   0  0  0  0  0  0  0  0  0  0  0  0
   -5.2942   -5.9471   -0.0000 C   0  0  0  0  0  0  0  0  0  0  0  0
   -4.7600   -7.9888   -0.0000 C   0  0  0  0  0  0  0  0  0  0  0  0
   -3.6205   -8.1431   -0.0000 C   0  0  0  0  0  0  0  0  0  0  0  0
  1  2  1  0  0  0  0
  1  3  1  0  0  0  0
  2  4  2  0  0  0  0
  2  5  1  0  0  0  0
  4  6  1  0  0  0  0
  4  7  1  0  0  0  0
  5  8  2  0  0  0  0
  5  9  1  0  0  0  0
  7 10  2  0  0  0  0
  7 11  1  0  0  0  0
  9 12  1  0  0  0  0
  9 13  1  0  0  0  0
 10 14  1  0  0  0  0
 11 15  1  0  0  0  0
 11 16  1  0  0  0  0
 11 17  1  1  0  0  0
 14 18  1  1  0  0  0
 14 19  1  0  0  0  0
 15 20  1  0  0  0  0
 16 21  1  0  0  0  0
 20 22  1  0  0  0  0
 20 23  1  0  0  0  0
 20 24  1  0  0  0  0
  8 10  1  0  0  0  0
 15 19  1  1  0  0  0
 21 22  1  0  0  0  0
M  END
>  <MolRegNo>
387462

>  <m>
=

>  <Value>
1150

>  <Unit>
nM

>  <Type>
EC50

>  <Ligand Efficiency>


>  <Binding Efficiency>


>  <Surface Efficiency>


>  <Assay Index>
294026

>  <Assay Category>


>  <Assay Organism>
SARS coronavirus

>  <Target ID>
100499

>  <Target Name>
SARS coronavirus

>  <Target Organism>
SARS coronavirus

>  <Target Description>
Target is a complete organism

>  <Sequence Accession>


>  <Reference>
J. Med. Chem. 50 (17), 4087-4095 (2007)

>  <Pubmed ID>
17663539

>  <DOI>
10.1021/jm070295s

>  <InChI-Key>
HCQUMJYLWCSLLR-MRUHUIDDSA-N

>  <Molecular Formula>
C21H32O3

>  <Monoisotopic Mass>
332.235145

>  <Druglikeness>
-4.2816

$$$$
Compound 217
Actelion Java MolfileCreator 1.0

 24 26  0  0  1  0  0  0  0  0999 V2000
    0.0000   -0.0000   -0.0000 O   0  0  0  0  0  0  0  0  0  0  0  0
   -0.0237   -1.4957   -0.0000 C   0  0  0  0  0  0  0  0  0  0  0  0
    1.2939    0.7597   -0.0000 C   0  0  0  0  0  0  0  0  0  0  0  0
   -1.3532   -2.2316   -0.0000 C   0  0  0  0  0  0  0  0  0  0  0  0
    1.2701   -2.2435   -0.0000 C   0  0  0  0  0  0  0  0  0  0  0  0
   -2.6590   -1.4601   -0.0000 O   0  0  0  0  0  0  0  0  0  0  0  0
   -1.3651   -3.7273   -0.0000 C   0  0  0  0  0  0  0  0  0  0  0  0
    1.2464   -3.7392   -0.0000 C   0  0  0  0  0  0  0  0  0  0  0  0
    2.5640   -1.4957   -0.0000 C   0  0  0  0  0  0  0  0  0  0  0  0
   -0.0712   -4.4751   -0.0000 C   0  0  0  0  0  0  0  0  0  0  0  0
   -2.6708   -4.4751   -0.0000 C   0  0  0  0  0  0  0  0  0  0  0  0
    3.8460   -2.2435   -0.0000 C   0  0  0  0  0  0  0  0  0  0  0  0
    2.5640    0.0237   -0.0000 C   0  0  0  0  0  0  0  0  0  0  0  0
   -0.0831   -5.9589   -0.0000 C   0  0  0  0  0  0  0  0  0  0  0  0
   -2.6827   -5.9708   -0.0000 C   0  0  0  0  0  0  0  0  0  0  0  0
   -3.9766   -3.7036   -0.0000 C   0  0  0  0  0  0  0  0  0  0  0  0
   -2.6946   -2.9557   -0.0000 C   0  0  0  0  0  0  0  0  0  0  0  0
    1.2108   -6.6949   -0.0000 O   0  0  0  0  0  0  0  0  0  0  0  0
   -1.4007   -6.6949   -0.0000 C   0  0  0  0  0  0  0  0  0  0  0  0
   -3.9885   -6.7068   -0.0000 C   0  0  0  0  0  0  0  0  0  0  0  0
   -5.2823   -4.4514   -0.0000 C   0  0  0  0  0  0  0  0  0  0  0  0
   -5.2942   -5.9471   -0.0000 C   0  0  0  0  0  0  0  0  0  0  0  0
   -4.7600   -7.9888   -0.0000 C   0  0  0  0  0  0  0  0  0  0  0  0
   -3.6205   -8.1431   -0.0000 C   0  0  0  0  0  0  0  0  0  0  0  0
  1  2  1  0  0  0  0
  1  3  1  0  0  0  0
  2  4  2  0  0  0  0
  2  5  1  0  0  0  0
  4  6  1  0  0  0  0
  4  7  1  0  0  0  0
  5  8  2  0  0  0  0
  5  9  1  0  0  0  0
  7 10  2  0  0  0  0
  7 11  1  0  0  0  0
  9 12  1  0  0  0  0
  9 13  1  0  0  0  0
 10 14  1  0  0  0  0
 11 15  1  0  0  0  0
 11 16  1  0  0  0  0
 11 17  1  1  0  0  0
 14 18  1  1  0  0  0
 14 19  1  0  0  0  0
 15 20  1  0  0  0  0
 16 21  1  0  0  0  0
 20 22  1  0  0  0  0
 20 23  1  0  0  0  0
 20 24  1  0  0  0  0
  8 10  1  0  0  0  0
 15 19  1  1  0  0  0
 21 22  1  0  0  0  0
M  END
>  <MolRegNo>
387462

>  <m>
<

>  <Value>
25

>  <Unit>
%

>  <Type>
Inhibition

>  <Ligand Efficiency>


>  <Binding Efficiency>


>  <Surface Efficiency>


>  <Assay Index>
294022

>  <Assay Category>


>  <Assay Organism>
SARS coronavirus

>  <Target ID>
100499

>  <Target Name>
SARS coronavirus

>  <Target Organism>
SARS coronavirus

>  <Target Description>
Target is a complete organism

>  <Sequence Accession>


>  <Reference>
J. Med. Chem. 50 (17), 4087-4095 (2007)

>  <Pubmed ID>
17663539

>  <DOI>
10.1021/jm070295s

>  <InChI-Key>
HCQUMJYLWCSLLR-MRUHUIDDSA-N

>  <Molecular Formula>
C21H32O3

>  <Monoisotopic Mass>
332.235145

>  <Druglikeness>
-4.2816

$$$$
Compound 218
Actelion Java MolfileCreator 1.0

 24 26  0  0  1  0  0  0  0  0999 V2000
    0.0000   -0.0000   -0.0000 O   0  0  0  0  0  0  0  0  0  0  0  0
   -0.0237   -1.4957   -0.0000 C   0  0  0  0  0  0  0  0  0  0  0  0
    1.2939    0.7597   -0.0000 C   0  0  0  0  0  0  0  0  0  0  0  0
   -1.3532   -2.2316   -0.0000 C   0  0  0  0  0  0  0  0  0  0  0  0
    1.2701   -2.2435   -0.0000 C   0  0  0  0  0  0  0  0  0  0  0  0
   -2.6590   -1.4601   -0.0000 O   0  0  0  0  0  0  0  0  0  0  0  0
   -1.3651   -3.7273   -0.0000 C   0  0  0  0  0  0  0  0  0  0  0  0
    1.2464   -3.7392   -0.0000 C   0  0  0  0  0  0  0  0  0  0  0  0
    2.5640   -1.4957   -0.0000 C   0  0  0  0  0  0  0  0  0  0  0  0
   -0.0712   -4.4751   -0.0000 C   0  0  0  0  0  0  0  0  0  0  0  0
   -2.6708   -4.4751   -0.0000 C   0  0  0  0  0  0  0  0  0  0  0  0
    3.8460   -2.2435   -0.0000 C   0  0  0  0  0  0  0  0  0  0  0  0
    2.5640    0.0237   -0.0000 C   0  0  0  0  0  0  0  0  0  0  0  0
   -0.0831   -5.9589   -0.0000 C   0  0  0  0  0  0  0  0  0  0  0  0
   -2.6827   -5.9708   -0.0000 C   0  0  0  0  0  0  0  0  0  0  0  0
   -3.9766   -3.7036   -0.0000 C   0  0  0  0  0  0  0  0  0  0  0  0
   -2.6946   -2.9557   -0.0000 C   0  0  0  0  0  0  0  0  0  0  0  0
    1.2108   -6.6949   -0.0000 O   0  0  0  0  0  0  0  0  0  0  0  0
   -1.4007   -6.6949   -0.0000 C   0  0  0  0  0  0  0  0  0  0  0  0
   -3.9885   -6.7068   -0.0000 C   0  0  0  0  0  0  0  0  0  0  0  0
   -5.2823   -4.4514   -0.0000 C   0  0  0  0  0  0  0  0  0  0  0  0
   -5.2942   -5.9471   -0.0000 C   0  0  0  0  0  0  0  0  0  0  0  0
   -4.7600   -7.9888   -0.0000 C   0  0  0  0  0  0  0  0  0  0  0  0
   -3.6205   -8.1431   -0.0000 C   0  0  0  0  0  0  0  0  0  0  0  0
  1  2  1  0  0  0  0
  1  3  1  0  0  0  0
  2  4  2  0  0  0  0
  2  5  1  0  0  0  0
  4  6  1  0  0  0  0
  4  7  1  0  0  0  0
  5  8  2  0  0  0  0
  5  9  1  0  0  0  0
  7 10  2  0  0  0  0
  7 11  1  0  0  0  0
  9 12  1  0  0  0  0
  9 13  1  0  0  0  0
 10 14  1  0  0  0  0
 11 15  1  0  0  0  0
 11 16  1  0  0  0  0
 11 17  1  1  0  0  0
 14 18  1  1  0  0  0
 14 19  1  0  0  0  0
 15 20  1  0  0  0  0
 16 21  1  0  0  0  0
 20 22  1  0  0  0  0
 20 23  1  0  0  0  0
 20 24  1  0  0  0  0
  8 10  1  0  0  0  0
 15 19  1  1  0  0  0
 21 22  1  0  0  0  0
M  END
>  <MolRegNo>
387462

>  <m>
<

>  <Value>
25

>  <Unit>
%

>  <Type>
Inhibition

>  <Ligand Efficiency>


>  <Binding Efficiency>


>  <Surface Efficiency>


>  <Assay Index>
294023

>  <Assay Category>


>  <Assay Organism>
SARS coronavirus

>  <Target ID>
100499

>  <Target Name>
SARS coronavirus

>  <Target Organism>
SARS coronavirus

>  <Target Description>
Target is a complete organism

>  <Sequence Accession>


>  <Reference>
J. Med. Chem. 50 (17), 4087-4095 (2007)

>  <Pubmed ID>
17663539

>  <DOI>
10.1021/jm070295s

>  <InChI-Key>
HCQUMJYLWCSLLR-MRUHUIDDSA-N

>  <Molecular Formula>
C21H32O3

>  <Monoisotopic Mass>
332.235145

>  <Druglikeness>
-4.2816

$$$$
Compound 219
Actelion Java MolfileCreator 1.0

 24 26  0  0  1  0  0  0  0  0999 V2000
    0.0000   -0.0000   -0.0000 O   0  0  0  0  0  0  0  0  0  0  0  0
   -0.0237   -1.4957   -0.0000 C   0  0  0  0  0  0  0  0  0  0  0  0
    1.2939    0.7597   -0.0000 C   0  0  0  0  0  0  0  0  0  0  0  0
   -1.3532   -2.2316   -0.0000 C   0  0  0  0  0  0  0  0  0  0  0  0
    1.2701   -2.2435   -0.0000 C   0  0  0  0  0  0  0  0  0  0  0  0
   -2.6590   -1.4601   -0.0000 O   0  0  0  0  0  0  0  0  0  0  0  0
   -1.3651   -3.7273   -0.0000 C   0  0  0  0  0  0  0  0  0  0  0  0
    1.2464   -3.7392   -0.0000 C   0  0  0  0  0  0  0  0  0  0  0  0
    2.5640   -1.4957   -0.0000 C   0  0  0  0  0  0  0  0  0  0  0  0
   -0.0712   -4.4751   -0.0000 C   0  0  0  0  0  0  0  0  0  0  0  0
   -2.6708   -4.4751   -0.0000 C   0  0  0  0  0  0  0  0  0  0  0  0
    3.8460   -2.2435   -0.0000 C   0  0  0  0  0  0  0  0  0  0  0  0
    2.5640    0.0237   -0.0000 C   0  0  0  0  0  0  0  0  0  0  0  0
   -0.0831   -5.9589   -0.0000 C   0  0  0  0  0  0  0  0  0  0  0  0
   -2.6827   -5.9708   -0.0000 C   0  0  0  0  0  0  0  0  0  0  0  0
   -3.9766   -3.7036   -0.0000 C   0  0  0  0  0  0  0  0  0  0  0  0
   -2.6946   -2.9557   -0.0000 C   0  0  0  0  0  0  0  0  0  0  0  0
    1.2108   -6.6949   -0.0000 O   0  0  0  0  0  0  0  0  0  0  0  0
   -1.4007   -6.6949   -0.0000 C   0  0  0  0  0  0  0  0  0  0  0  0
   -3.9885   -6.7068   -0.0000 C   0  0  0  0  0  0  0  0  0  0  0  0
   -5.2823   -4.4514   -0.0000 C   0  0  0  0  0  0  0  0  0  0  0  0
   -5.2942   -5.9471   -0.0000 C   0  0  0  0  0  0  0  0  0  0  0  0
   -4.7600   -7.9888   -0.0000 C   0  0  0  0  0  0  0  0  0  0  0  0
   -3.6205   -8.1431   -0.0000 C   0  0  0  0  0  0  0  0  0  0  0  0
  1  2  1  0  0  0  0
  1  3  1  0  0  0  0
  2  4  2  0  0  0  0
  2  5  1  0  0  0  0
  4  6  1  0  0  0  0
  4  7  1  0  0  0  0
  5  8  2  0  0  0  0
  5  9  1  0  0  0  0
  7 10  2  0  0  0  0
  7 11  1  0  0  0  0
  9 12  1  0  0  0  0
  9 13  1  0  0  0  0
 10 14  1  0  0  0  0
 11 15  1  0  0  0  0
 11 16  1  0  0  0  0
 11 17  1  1  0  0  0
 14 18  1  1  0  0  0
 14 19  1  0  0  0  0
 15 20  1  0  0  0  0
 16 21  1  0  0  0  0
 20 22  1  0  0  0  0
 20 23  1  0  0  0  0
 20 24  1  0  0  0  0
  8 10  1  0  0  0  0
 15 19  1  1  0  0  0
 21 22  1  0  0  0  0
M  END
>  <MolRegNo>
387462

>  <m>


>  <Value>
0

>  <Unit>


>  <Type>
Inhibition

>  <Ligand Efficiency>


>  <Binding Efficiency>


>  <Surface Efficiency>


>  <Assay Index>
294025

>  <Assay Category>


>  <Assay Organism>
SARS coronavirus

>  <Target ID>
100499

>  <Target Name>
SARS coronavirus

>  <Target Organism>
SARS coronavirus

>  <Target Description>
Target is a complete organism

>  <Sequence Accession>


>  <Reference>
J. Med. Chem. 50 (17), 4087-4095 (2007)

>  <Pubmed ID>
17663539

>  <DOI>
10.1021/jm070295s

>  <InChI-Key>
HCQUMJYLWCSLLR-MRUHUIDDSA-N

>  <Molecular Formula>
C21H32O3

>  <Monoisotopic Mass>
332.235145

>  <Druglikeness>
-4.2816

$$$$
Compound 220
Actelion Java MolfileCreator 1.0

 24 26  0  0  1  0  0  0  0  0999 V2000
    0.0000   -0.0000   -0.0000 O   0  0  0  0  0  0  0  0  0  0  0  0
   -0.0237   -1.4957   -0.0000 C   0  0  0  0  0  0  0  0  0  0  0  0
    1.2939    0.7597   -0.0000 C   0  0  0  0  0  0  0  0  0  0  0  0
   -1.3532   -2.2316   -0.0000 C   0  0  0  0  0  0  0  0  0  0  0  0
    1.2701   -2.2435   -0.0000 C   0  0  0  0  0  0  0  0  0  0  0  0
   -2.6590   -1.4601   -0.0000 O   0  0  0  0  0  0  0  0  0  0  0  0
   -1.3651   -3.7273   -0.0000 C   0  0  0  0  0  0  0  0  0  0  0  0
    1.2464   -3.7392   -0.0000 C   0  0  0  0  0  0  0  0  0  0  0  0
    2.5640   -1.4957   -0.0000 C   0  0  0  0  0  0  0  0  0  0  0  0
   -0.0712   -4.4751   -0.0000 C   0  0  0  0  0  0  0  0  0  0  0  0
   -2.6708   -4.4751   -0.0000 C   0  0  0  0  0  0  0  0  0  0  0  0
    3.8460   -2.2435   -0.0000 C   0  0  0  0  0  0  0  0  0  0  0  0
    2.5640    0.0237   -0.0000 C   0  0  0  0  0  0  0  0  0  0  0  0
   -0.0831   -5.9589   -0.0000 C   0  0  0  0  0  0  0  0  0  0  0  0
   -2.6827   -5.9708   -0.0000 C   0  0  0  0  0  0  0  0  0  0  0  0
   -3.9766   -3.7036   -0.0000 C   0  0  0  0  0  0  0  0  0  0  0  0
   -2.6946   -2.9557   -0.0000 C   0  0  0  0  0  0  0  0  0  0  0  0
    1.2108   -6.6949   -0.0000 O   0  0  0  0  0  0  0  0  0  0  0  0
   -1.4007   -6.6949   -0.0000 C   0  0  0  0  0  0  0  0  0  0  0  0
   -3.9885   -6.7068   -0.0000 C   0  0  0  0  0  0  0  0  0  0  0  0
   -5.2823   -4.4514   -0.0000 C   0  0  0  0  0  0  0  0  0  0  0  0
   -5.2942   -5.9471   -0.0000 C   0  0  0  0  0  0  0  0  0  0  0  0
   -4.7600   -7.9888   -0.0000 C   0  0  0  0  0  0  0  0  0  0  0  0
   -3.6205   -8.1431   -0.0000 C   0  0  0  0  0  0  0  0  0  0  0  0
  1  2  1  0  0  0  0
  1  3  1  0  0  0  0
  2  4  2  0  0  0  0
  2  5  1  0  0  0  0
  4  6  1  0  0  0  0
  4  7  1  0  0  0  0
  5  8  2  0  0  0  0
  5  9  1  0  0  0  0
  7 10  2  0  0  0  0
  7 11  1  0  0  0  0
  9 12  1  0  0  0  0
  9 13  1  0  0  0  0
 10 14  1  0  0  0  0
 11 15  1  0  0  0  0
 11 16  1  0  0  0  0
 11 17  1  1  0  0  0
 14 18  1  1  0  0  0
 14 19  1  0  0  0  0
 15 20  1  0  0  0  0
 16 21  1  0  0  0  0
 20 22  1  0  0  0  0
 20 23  1  0  0  0  0
 20 24  1  0  0  0  0
  8 10  1  0  0  0  0
 15 19  1  1  0  0  0
 21 22  1  0  0  0  0
M  END
>  <MolRegNo>
387462

>  <m>


>  <Value>
0

>  <Unit>


>  <Type>
Inhibition

>  <Ligand Efficiency>


>  <Binding Efficiency>


>  <Surface Efficiency>


>  <Assay Index>
294024

>  <Assay Category>


>  <Assay Organism>
SARS coronavirus

>  <Target ID>
100499

>  <Target Name>
SARS coronavirus

>  <Target Organism>
SARS coronavirus

>  <Target Description>
Target is a complete organism

>  <Sequence Accession>


>  <Reference>
J. Med. Chem. 50 (17), 4087-4095 (2007)

>  <Pubmed ID>
17663539

>  <DOI>
10.1021/jm070295s

>  <InChI-Key>
HCQUMJYLWCSLLR-MRUHUIDDSA-N

>  <Molecular Formula>
C21H32O3

>  <Monoisotopic Mass>
332.235145

>  <Druglikeness>
-4.2816

$$$$
Compound 221
Actelion Java MolfileCreator 1.0

 14 15  0  0  0  0  0  0  0  0999 V2000
    0.0000   -0.0000   -0.0000 Cl  0  0  0  0  0  0  0  0  0  0  0  0
   -1.3030   -0.7344   -0.0000 C   0  0  0  0  0  0  0  0  0  0  0  0
   -1.3148   -2.2269   -0.0000 C   0  0  0  0  0  0  0  0  0  0  0  0
   -2.6059    0.0237   -0.0000 C   0  0  0  0  0  0  0  0  0  0  0  0
   -2.6296   -2.9613   -0.0000 N   0  0  0  0  0  0  0  0  0  0  0  0
   -3.9089   -0.7107   -0.0000 C   0  0  0  0  0  0  0  0  0  0  0  0
   -3.9326   -2.2032   -0.0000 C   0  0  0  0  0  0  0  0  0  0  0  0
   -5.2118    0.0474   -0.0000 O   0  0  0  0  0  0  0  0  0  0  0  0
   -6.5148   -0.6870   -0.0000 C   0  0  0  0  0  0  0  0  0  0  0  0
   -7.8177    0.0711   -0.0000 C   0  0  0  0  0  0  0  0  0  0  0  0
   -9.1917   -0.5212   -0.0000 O   0  0  0  0  0  0  0  0  0  0  0  0
   -7.9836    1.5635   -0.0000 C   0  0  0  0  0  0  0  0  0  0  0  0
  -10.1986    0.6041   -0.0000 C   0  0  0  0  0  0  0  0  0  0  0  0
   -9.4523    1.8834   -0.0000 C   0  0  0  0  0  0  0  0  0  0  0  0
  1  2  1  0  0  0  0
  2  3  2  0  0  0  0
  2  4  1  0  0  0  0
  3  5  1  0  0  0  0
  4  6  2  0  0  0  0
  5  7  2  0  0  0  0
  6  8  1  0  0  0  0
  8  9  1  0  0  0  0
  9 10  1  0  0  0  0
 10 11  1  0  0  0  0
 10 12  2  0  0  0  0
 11 13  1  0  0  0  0
 12 14  1  0  0  0  0
  6  7  1  0  0  0  0
 13 14  2  0  0  0  0
M  END
>  <MolRegNo>
371879

>  <m>
=

>  <Value>
11

>  <Unit>
%

>  <Type>
Inhibition

>  <Ligand Efficiency>


>  <Binding Efficiency>


>  <Surface Efficiency>


>  <Assay Index>
278390

>  <Assay Category>


>  <Assay Organism>
SARS coronavirus

>  <Target ID>
20012

>  <Target Name>
SARS coronavirus 3C-like proteinase

>  <Target Organism>
SARS coronavirus

>  <Target Description>
Target is a single protein chain

>  <Sequence Accession>
P0C6U8

>  <Reference>
J. Med. Chem. 50 (8), 1850-1864 (2007)

>  <Pubmed ID>
17381079

>  <DOI>
10.1021/jm061425k

>  <InChI-Key>
HDKWHBXHKZBNJZ-UHFFFAOYSA-N

>  <Molecular Formula>
C10H8NO2Cl

>  <Monoisotopic Mass>
209.024356

>  <Druglikeness>
-1.1315

$$$$
Compound 222
Actelion Java MolfileCreator 1.0

 16 17  0  0  0  0  0  0  0  0999 V2000
    0.0000   -0.0000   -0.0000 O   0  0  0  0  0  0  0  0  0  0  0  0
   -1.4907    0.0239   -0.0000 C   0  0  0  0  0  0  0  0  0  0  0  0
   -2.3731   -1.1687   -0.0000 N   0  0  0  0  0  0  0  0  0  0  0  0
   -2.3731    1.2402   -0.0000 C   0  0  0  0  0  0  0  0  0  0  0  0
   -3.8042   -0.6917   -0.0000 C   0  0  0  0  0  0  0  0  0  0  0  0
   -1.9200   -2.5759   -0.0000 C   0  0  0  0  0  0  0  0  0  0  0  0
   -1.9200    2.6951   -0.0000 O   0  0  0  0  0  0  0  0  0  0  0  0
   -3.8042    0.7871   -0.0000 C   0  0  0  0  0  0  0  0  0  0  0  0
   -5.0802   -1.4191   -0.0000 C   0  0  0  0  0  0  0  0  0  0  0  0
   -5.0802    1.5622   -0.0000 C   0  0  0  0  0  0  0  0  0  0  0  0
   -6.4158   -0.6678   -0.0000 C   0  0  0  0  0  0  0  0  0  0  0  0
   -6.4158    0.8109   -0.0000 C   0  0  0  0  0  0  0  0  0  0  0  0
   -7.7515    1.5384   -0.0000 C   0  0  0  0  0  0  0  0  0  0  0  0
   -9.0275    0.7751   -0.0000 O   0  0  0  0  0  0  0  0  0  0  0  0
   -7.8230    3.0648   -0.0000 O   0  0  0  0  0  0  0  0  0  0  0  0
   -9.1110    3.8161   -0.0000 C   0  0  0  0  0  0  0  0  0  0  0  0
  1  2  2  0  0  0  0
  2  3  1  0  0  0  0
  2  4  1  0  0  0  0
  3  5  1  0  0  0  0
  3  6  1  0  0  0  0
  4  7  2  0  0  0  0
  4  8  1  0  0  0  0
  5  9  1  0  0  0  0
  8 10  1  0  0  0  0
  9 11  2  0  0  0  0
 10 12  2  0  0  0  0
 12 13  1  0  0  0  0
 13 14  2  0  0  0  0
 13 15  1  0  0  0  0
 15 16  1  0  0  0  0
  5  8  2  0  0  0  0
 11 12  1  0  0  0  0
M  END
>  <MolRegNo>
97000

>  <m>
<

>  <Value>
25

>  <Unit>
%

>  <Type>
Inhibition

>  <Ligand Efficiency>


>  <Binding Efficiency>


>  <Surface Efficiency>


>  <Assay Index>
262887

>  <Assay Category>


>  <Assay Organism>
SARS coronavirus

>  <Target ID>
20012

>  <Target Name>
SARS coronavirus 3C-like proteinase

>  <Target Organism>
SARS coronavirus

>  <Target Description>
Target is a single protein chain

>  <Sequence Accession>
P0C6U8

>  <Reference>
J. Med. Chem. 49 (12), 3440-3443 (2006)

>  <Pubmed ID>
16759084

>  <DOI>
10.1021/jm0602357

>  <InChI-Key>
HENVEYFKOOGIOO-UHFFFAOYSA-N

>  <Molecular Formula>
C11H9NO4

>  <Monoisotopic Mass>
219.053159

>  <Druglikeness>
-2.839

$$$$
Compound 223
Actelion Java MolfileCreator 1.0

 23 25  0  0  0  0  0  0  0  0999 V2000
    0.0000   -0.0000   -0.0000 S   0  0  0  0  0  0  0  0  0  0  0  0
    1.3663   -0.6059   -0.0000 C   0  0  0  0  0  0  0  0  0  0  0  0
   -1.0217   -1.1049   -0.0000 C   0  0  0  0  0  0  0  0  0  0  0  0
    2.6612    0.1544   -0.0000 C   0  0  0  0  0  0  0  0  0  0  0  0
    1.1999   -2.0910   -0.0000 C   0  0  0  0  0  0  0  0  0  0  0  0
   -0.2851   -2.3999   -0.0000 C   0  0  0  0  0  0  0  0  0  0  0  0
    2.6493    1.6751   -0.0000 N   0  0  0  0  0  0  0  0  0  0  0  0
    3.9562   -0.5821   -0.0000 C   0  0  0  0  0  0  0  0  0  0  0  0
    3.9443    2.4355   -0.0000 C   0  0  0  0  0  0  0  0  0  0  0  0
    5.2512    0.1782   -0.0000 C   0  0  0  0  0  0  0  0  0  0  0  0
    3.9324    3.9562   -0.0000 O   0  0  0  0  0  0  0  0  0  0  0  0
    5.2393    1.6870   -0.0000 C   0  0  0  0  0  0  0  0  0  0  0  0
    6.5461   -0.5584   -0.0000 C   0  0  0  0  0  0  0  0  0  0  0  0
    6.5342    2.4474   -0.0000 C   0  0  0  0  0  0  0  0  0  0  0  0
    7.8411    0.2020   -0.0000 C   0  0  0  0  0  0  0  0  0  0  0  0
    6.5342   -2.0553   -0.0000 C   0  0  0  0  0  0  0  0  0  0  0  0
    7.8292    3.2077   -0.0000 N   0  0  0  0  0  0  0  0  0  0  0  0
    9.1361   -0.5346   -0.0000 C   0  0  0  0  0  0  0  0  0  0  0  0
    7.8292   -2.7919   -0.0000 C   0  0  0  0  0  0  0  0  0  0  0  0
    9.1242   -2.0316   -0.0000 C   0  0  0  0  0  0  0  0  0  0  0  0
   10.4192   -2.7681   -0.0000 C   0  0  0  0  0  0  0  0  0  0  0  0
   11.7141   -2.0078   -0.0000 C   0  0  0  0  0  0  0  0  0  0  0  0
   10.4073   -4.2651   -0.0000 C   0  0  0  0  0  0  0  0  0  0  0  0
  1  2  1  0  0  0  0
  1  3  1  0  0  0  0
  2  4  1  0  0  0  0
  2  5  2  0  0  0  0
  3  6  2  0  0  0  0
  4  7  1  0  0  0  0
  4  8  2  0  0  0  0
  7  9  1  0  0  0  0
  8 10  1  0  0  0  0
  9 11  2  0  0  0  0
  9 12  1  0  0  0  0
 10 13  1  0  0  0  0
 12 14  1  0  0  0  0
 13 15  2  0  0  0  0
 13 16  1  0  0  0  0
 14 17  3  0  0  0  0
 15 18  1  0  0  0  0
 16 19  2  0  0  0  0
 18 20  2  0  0  0  0
 20 21  1  0  0  0  0
 21 22  1  0  0  0  0
 21 23  1  0  0  0  0
  5  6  1  0  0  0  0
 10 12  2  0  0  0  0
 19 20  1  0  0  0  0
M  END
>  <MolRegNo>
1619988

>  <m>
>

>  <Value>
26000

>  <Unit>
nM

>  <Type>
EC50

>  <Ligand Efficiency>


>  <Binding Efficiency>


>  <Surface Efficiency>


>  <Assay Index>
825873

>  <Assay Category>


>  <Assay Organism>
SARS coronavirus

>  <Target ID>
100499

>  <Target Name>
SARS coronavirus

>  <Target Organism>
SARS coronavirus

>  <Target Description>
Target is a complete organism

>  <Sequence Accession>


>  <Reference>


>  <Pubmed ID>
24486419

>  <DOI>
10.1016/j.ejmech.2013.12.055

>  <InChI-Key>
HGVUXPHBBUTFTF-UHFFFAOYSA-N

>  <Molecular Formula>
C19H16N2OS

>  <Monoisotopic Mass>
320.098333

>  <Druglikeness>
0.47607

$$$$
Compound 224
Actelion Java MolfileCreator 1.0

 15 16  0  0  0  0  0  0  0  0999 V2000
    0.0000   -0.0000   -0.0000 Br  0  0  0  0  0  0  0  0  0  0  0  0
   -0.0945   -1.4876   -0.0000 C   0  0  0  0  0  0  0  0  0  0  0  0
    1.1570   -2.3023   -0.0000 C   0  0  0  0  0  0  0  0  0  0  0  0
   -1.4404   -2.1606   -0.0000 C   0  0  0  0  0  0  0  0  0  0  0  0
    1.0626   -3.7899   -0.0000 N   0  0  0  0  0  0  0  0  0  0  0  0
   -1.5349   -3.6364   -0.0000 C   0  0  0  0  0  0  0  0  0  0  0  0
   -0.2834   -4.4511   -0.0000 C   0  0  0  0  0  0  0  0  0  0  0  0
   -2.8808   -4.2976   -0.0000 O   0  0  0  0  0  0  0  0  0  0  0  0
   -4.1677   -3.5066   -0.0000 C   0  0  0  0  0  0  0  0  0  0  0  0
   -4.1441   -1.9953   -0.0000 O   0  0  0  0  0  0  0  0  0  0  0  0
   -5.5019   -4.2150   -0.0000 C   0  0  0  0  0  0  0  0  0  0  0  0
   -6.8715   -3.5538   -0.0000 O   0  0  0  0  0  0  0  0  0  0  0  0
   -5.7144   -5.6908   -0.0000 C   0  0  0  0  0  0  0  0  0  0  0  0
   -7.9104   -4.6282   -0.0000 C   0  0  0  0  0  0  0  0  0  0  0  0
   -7.2020   -5.9505   -0.0000 C   0  0  0  0  0  0  0  0  0  0  0  0
  1  2  1  0  0  0  0
  2  3  2  0  0  0  0
  2  4  1  0  0  0  0
  3  5  1  0  0  0  0
  4  6  2  0  0  0  0
  5  7  2  0  0  0  0
  6  8  1  0  0  0  0
  8  9  1  0  0  0  0
  9 10  2  0  0  0  0
  9 11  1  0  0  0  0
 11 12  1  0  0  0  0
 11 13  2  0  0  0  0
 12 14  1  0  0  0  0
 13 15  1  0  0  0  0
  6  7  1  0  0  0  0
 14 15  2  0  0  0  0
M  END
>  <MolRegNo>
371869

>  <m>
=

>  <Value>
50

>  <Unit>
nM

>  <Type>
IC50

>  <Ligand Efficiency>
0.66

>  <Binding Efficiency>
27.24

>  <Surface Efficiency>
13.95

>  <Assay Index>
278391

>  <Assay Category>


>  <Assay Organism>
SARS coronavirus

>  <Target ID>
20012

>  <Target Name>
SARS coronavirus 3C-like proteinase

>  <Target Organism>
SARS coronavirus

>  <Target Description>
Target is a single protein chain

>  <Sequence Accession>
P0C6U8

>  <Reference>
J. Med. Chem. 50 (8), 1850-1864 (2007)

>  <Pubmed ID>
17381079

>  <DOI>
10.1021/jm061425k

>  <InChI-Key>
HMICIXHTRIFAET-UHFFFAOYSA-N

>  <Molecular Formula>
C10H6NO3Br

>  <Monoisotopic Mass>
266.953105

>  <Druglikeness>
-2.3215

$$$$
Compound 225
Actelion Java MolfileCreator 1.0

 15 16  0  0  0  0  0  0  0  0999 V2000
    0.0000   -0.0000   -0.0000 Br  0  0  0  0  0  0  0  0  0  0  0  0
   -0.0945   -1.4876   -0.0000 C   0  0  0  0  0  0  0  0  0  0  0  0
    1.1570   -2.3023   -0.0000 C   0  0  0  0  0  0  0  0  0  0  0  0
   -1.4404   -2.1606   -0.0000 C   0  0  0  0  0  0  0  0  0  0  0  0
    1.0626   -3.7899   -0.0000 N   0  0  0  0  0  0  0  0  0  0  0  0
   -1.5349   -3.6364   -0.0000 C   0  0  0  0  0  0  0  0  0  0  0  0
   -0.2834   -4.4511   -0.0000 C   0  0  0  0  0  0  0  0  0  0  0  0
   -2.8808   -4.2976   -0.0000 O   0  0  0  0  0  0  0  0  0  0  0  0
   -4.1677   -3.5066   -0.0000 C   0  0  0  0  0  0  0  0  0  0  0  0
   -4.1441   -1.9953   -0.0000 O   0  0  0  0  0  0  0  0  0  0  0  0
   -5.5019   -4.2150   -0.0000 C   0  0  0  0  0  0  0  0  0  0  0  0
   -6.8715   -3.5538   -0.0000 O   0  0  0  0  0  0  0  0  0  0  0  0
   -5.7144   -5.6908   -0.0000 C   0  0  0  0  0  0  0  0  0  0  0  0
   -7.9104   -4.6282   -0.0000 C   0  0  0  0  0  0  0  0  0  0  0  0
   -7.2020   -5.9505   -0.0000 C   0  0  0  0  0  0  0  0  0  0  0  0
  1  2  1  0  0  0  0
  2  3  2  0  0  0  0
  2  4  1  0  0  0  0
  3  5  1  0  0  0  0
  4  6  2  0  0  0  0
  5  7  2  0  0  0  0
  6  8  1  0  0  0  0
  8  9  1  0  0  0  0
  9 10  2  0  0  0  0
  9 11  1  0  0  0  0
 11 12  1  0  0  0  0
 11 13  2  0  0  0  0
 12 14  1  0  0  0  0
 13 15  1  0  0  0  0
  6  7  1  0  0  0  0
 14 15  2  0  0  0  0
M  END
>  <MolRegNo>
371869

>  <m>
=

>  <Value>
99

>  <Unit>
%

>  <Type>
Inhibition

>  <Ligand Efficiency>


>  <Binding Efficiency>


>  <Surface Efficiency>


>  <Assay Index>
278390

>  <Assay Category>


>  <Assay Organism>
SARS coronavirus

>  <Target ID>
20012

>  <Target Name>
SARS coronavirus 3C-like proteinase

>  <Target Organism>
SARS coronavirus

>  <Target Description>
Target is a single protein chain

>  <Sequence Accession>
P0C6U8

>  <Reference>
J. Med. Chem. 50 (8), 1850-1864 (2007)

>  <Pubmed ID>
17381079

>  <DOI>
10.1021/jm061425k

>  <InChI-Key>
HMICIXHTRIFAET-UHFFFAOYSA-N

>  <Molecular Formula>
C10H6NO3Br

>  <Monoisotopic Mass>
266.953105

>  <Druglikeness>
-2.3215

$$$$
Compound 226
Actelion Java MolfileCreator 1.0

 15 16  0  0  0  0  0  0  0  0999 V2000
    0.0000   -0.0000   -0.0000 Br  0  0  0  0  0  0  0  0  0  0  0  0
   -0.0945   -1.4876   -0.0000 C   0  0  0  0  0  0  0  0  0  0  0  0
    1.1570   -2.3023   -0.0000 C   0  0  0  0  0  0  0  0  0  0  0  0
   -1.4404   -2.1606   -0.0000 C   0  0  0  0  0  0  0  0  0  0  0  0
    1.0626   -3.7899   -0.0000 N   0  0  0  0  0  0  0  0  0  0  0  0
   -1.5349   -3.6364   -0.0000 C   0  0  0  0  0  0  0  0  0  0  0  0
   -0.2834   -4.4511   -0.0000 C   0  0  0  0  0  0  0  0  0  0  0  0
   -2.8808   -4.2976   -0.0000 O   0  0  0  0  0  0  0  0  0  0  0  0
   -4.1677   -3.5066   -0.0000 C   0  0  0  0  0  0  0  0  0  0  0  0
   -4.1441   -1.9953   -0.0000 O   0  0  0  0  0  0  0  0  0  0  0  0
   -5.5019   -4.2150   -0.0000 C   0  0  0  0  0  0  0  0  0  0  0  0
   -6.8715   -3.5538   -0.0000 O   0  0  0  0  0  0  0  0  0  0  0  0
   -5.7144   -5.6908   -0.0000 C   0  0  0  0  0  0  0  0  0  0  0  0
   -7.9104   -4.6282   -0.0000 C   0  0  0  0  0  0  0  0  0  0  0  0
   -7.2020   -5.9505   -0.0000 C   0  0  0  0  0  0  0  0  0  0  0  0
  1  2  1  0  0  0  0
  2  3  2  0  0  0  0
  2  4  1  0  0  0  0
  3  5  1  0  0  0  0
  4  6  2  0  0  0  0
  5  7  2  0  0  0  0
  6  8  1  0  0  0  0
  8  9  1  0  0  0  0
  9 10  2  0  0  0  0
  9 11  1  0  0  0  0
 11 12  1  0  0  0  0
 11 13  2  0  0  0  0
 12 14  1  0  0  0  0
 13 15  1  0  0  0  0
  6  7  1  0  0  0  0
 14 15  2  0  0  0  0
M  END
>  <MolRegNo>
371869

>  <m>
=

>  <Value>
98

>  <Unit>
%

>  <Type>
Inhibition

>  <Ligand Efficiency>


>  <Binding Efficiency>


>  <Surface Efficiency>


>  <Assay Index>
278392

>  <Assay Category>


>  <Assay Organism>
SARS coronavirus

>  <Target ID>
20012

>  <Target Name>
SARS coronavirus 3C-like proteinase

>  <Target Organism>
SARS coronavirus

>  <Target Description>
Target is a single protein chain

>  <Sequence Accession>
P0C6U8

>  <Reference>
J. Med. Chem. 50 (8), 1850-1864 (2007)

>  <Pubmed ID>
17381079

>  <DOI>
10.1021/jm061425k

>  <InChI-Key>
HMICIXHTRIFAET-UHFFFAOYSA-N

>  <Molecular Formula>
C10H6NO3Br

>  <Monoisotopic Mass>
266.953105

>  <Druglikeness>
-2.3215

$$$$
Compound 227
Actelion Java MolfileCreator 1.0

 27 27  0  0  0  0  0  0  0  0999 V2000
    0.0000   -0.0000   -0.0000 F   0  0  0  0  0  0  0  0  0  0  0  0
   -1.3024    0.7578   -0.0000 C   0  0  0  0  0  0  0  0  0  0  0  0
   -2.6048    0.0237   -0.0000 C   0  0  0  0  0  0  0  0  0  0  0  0
   -2.6166   -1.4563   -0.0000 O   0  0  0  0  0  0  0  0  0  0  0  0
   -3.9072    0.7814   -0.0000 C   0  0  0  0  0  0  0  0  0  0  0  0
   -5.2095    0.0474   -0.0000 N   0  0  0  0  0  0  0  0  0  0  0  0
   -3.9190    2.2851   -0.0000 C   0  0  0  0  0  0  0  0  0  0  0  0
   -6.5119    0.8051   -0.0000 C   0  0  0  0  0  0  0  0  0  0  0  0
   -2.6403    3.0428   -0.0000 C   0  0  0  0  0  0  0  0  0  0  0  0
   -6.5238    2.3088   -0.0000 O   0  0  0  0  0  0  0  0  0  0  0  0
   -7.8143    0.0710   -0.0000 C   0  0  0  0  0  0  0  0  0  0  0  0
   -2.6521    4.5465   -0.0000 C   0  0  0  0  0  0  0  0  0  0  0  0
   -9.1167    0.8288   -0.0000 N   0  0  0  0  0  0  0  0  0  0  0  0
   -3.9545    5.3043   -0.0000 O   0  0  0  0  0  0  0  0  0  0  0  0
   -1.3734    5.3043   -0.0000 N   0  0  0  0  0  0  0  0  0  0  0  0
  -10.4191    0.0947   -0.0000 C   0  0  0  0  0  0  0  0  0  0  0  0
   -0.0947    4.5702   -0.0000 C   0  0  0  0  0  0  0  0  0  0  0  0
   -1.3853    6.8079   -0.0000 C   0  0  0  0  0  0  0  0  0  0  0  0
  -10.4309   -1.3853   -0.0000 O   0  0  0  0  0  0  0  0  0  0  0  0
  -11.7215    0.8525   -0.0000 O   0  0  0  0  0  0  0  0  0  0  0  0
  -13.0239    0.1184   -0.0000 C   0  0  0  0  0  0  0  0  0  0  0  0
  -14.3263    0.8762   -0.0000 C   0  0  0  0  0  0  0  0  0  0  0  0
  -15.6405    0.1421   -0.0000 C   0  0  0  0  0  0  0  0  0  0  0  0
  -14.3381    2.3917   -0.0000 C   0  0  0  0  0  0  0  0  0  0  0  0
  -16.9429    0.8998   -0.0000 C   0  0  0  0  0  0  0  0  0  0  0  0
  -15.6405    3.1494   -0.0000 C   0  0  0  0  0  0  0  0  0  0  0  0
  -16.9547    2.4153   -0.0000 C   0  0  0  0  0  0  0  0  0  0  0  0
  1  2  1  0  0  0  0
  2  3  1  0  0  0  0
  3  4  2  0  0  0  0
  3  5  1  0  0  0  0
  5  6  1  0  0  0  0
  5  7  1  0  0  0  0
  6  8  1  0  0  0  0
  7  9  1  0  0  0  0
  8 10  2  0  0  0  0
  8 11  1  0  0  0  0
  9 12  1  0  0  0  0
 11 13  1  0  0  0  0
 12 14  2  0  0  0  0
 12 15  1  0  0  0  0
 13 16  1  0  0  0  0
 15 17  1  0  0  0  0
 15 18  1  0  0  0  0
 16 19  2  0  0  0  0
 16 20  1  0  0  0  0
 20 21  1  0  0  0  0
 21 22  1  0  0  0  0
 22 23  2  0  0  0  0
 22 24  1  0  0  0  0
 23 25  1  0  0  0  0
 24 26  2  0  0  0  0
 25 27  2  0  0  0  0
 26 27  1  0  0  0  0
M  END
>  <MolRegNo>
338440

>  <m>
>

>  <Value>
1.0e5

>  <Unit>
nM

>  <Type>
EC50

>  <Ligand Efficiency>


>  <Binding Efficiency>


>  <Surface Efficiency>


>  <Assay Index>
256674

>  <Assay Category>


>  <Assay Organism>
SARS coronavirus

>  <Target ID>
100499

>  <Target Name>
SARS coronavirus

>  <Target Organism>
SARS coronavirus

>  <Target Description>
Target is a complete organism

>  <Sequence Accession>


>  <Reference>
J. Med. Chem. 49 (3), 1198-1201 (2006)

>  <Pubmed ID>
16451084

>  <DOI>
10.1021/jm0507678

>  <InChI-Key>
HMXBVASPAGOLIL-UHFFFAOYSA-N

>  <Molecular Formula>
C18H24N3O5F

>  <Monoisotopic Mass>
381.170000

>  <Druglikeness>
-10.106

$$$$
Compound 228
Actelion Java MolfileCreator 1.0

 27 27  0  0  0  0  0  0  0  0999 V2000
    0.0000   -0.0000   -0.0000 F   0  0  0  0  0  0  0  0  0  0  0  0
   -1.3024    0.7578   -0.0000 C   0  0  0  0  0  0  0  0  0  0  0  0
   -2.6048    0.0237   -0.0000 C   0  0  0  0  0  0  0  0  0  0  0  0
   -2.6166   -1.4563   -0.0000 O   0  0  0  0  0  0  0  0  0  0  0  0
   -3.9072    0.7814   -0.0000 C   0  0  0  0  0  0  0  0  0  0  0  0
   -5.2095    0.0474   -0.0000 N   0  0  0  0  0  0  0  0  0  0  0  0
   -3.9190    2.2851   -0.0000 C   0  0  0  0  0  0  0  0  0  0  0  0
   -6.5119    0.8051   -0.0000 C   0  0  0  0  0  0  0  0  0  0  0  0
   -2.6403    3.0428   -0.0000 C   0  0  0  0  0  0  0  0  0  0  0  0
   -6.5238    2.3088   -0.0000 O   0  0  0  0  0  0  0  0  0  0  0  0
   -7.8143    0.0710   -0.0000 C   0  0  0  0  0  0  0  0  0  0  0  0
   -2.6521    4.5465   -0.0000 C   0  0  0  0  0  0  0  0  0  0  0  0
   -9.1167    0.8288   -0.0000 N   0  0  0  0  0  0  0  0  0  0  0  0
   -3.9545    5.3043   -0.0000 O   0  0  0  0  0  0  0  0  0  0  0  0
   -1.3734    5.3043   -0.0000 N   0  0  0  0  0  0  0  0  0  0  0  0
  -10.4191    0.0947   -0.0000 C   0  0  0  0  0  0  0  0  0  0  0  0
   -0.0947    4.5702   -0.0000 C   0  0  0  0  0  0  0  0  0  0  0  0
   -1.3853    6.8079   -0.0000 C   0  0  0  0  0  0  0  0  0  0  0  0
  -10.4309   -1.3853   -0.0000 O   0  0  0  0  0  0  0  0  0  0  0  0
  -11.7215    0.8525   -0.0000 O   0  0  0  0  0  0  0  0  0  0  0  0
  -13.0239    0.1184   -0.0000 C   0  0  0  0  0  0  0  0  0  0  0  0
  -14.3263    0.8762   -0.0000 C   0  0  0  0  0  0  0  0  0  0  0  0
  -15.6405    0.1421   -0.0000 C   0  0  0  0  0  0  0  0  0  0  0  0
  -14.3381    2.3917   -0.0000 C   0  0  0  0  0  0  0  0  0  0  0  0
  -16.9429    0.8998   -0.0000 C   0  0  0  0  0  0  0  0  0  0  0  0
  -15.6405    3.1494   -0.0000 C   0  0  0  0  0  0  0  0  0  0  0  0
  -16.9547    2.4153   -0.0000 C   0  0  0  0  0  0  0  0  0  0  0  0
  1  2  1  0  0  0  0
  2  3  1  0  0  0  0
  3  4  2  0  0  0  0
  3  5  1  0  0  0  0
  5  6  1  0  0  0  0
  5  7  1  0  0  0  0
  6  8  1  0  0  0  0
  7  9  1  0  0  0  0
  8 10  2  0  0  0  0
  8 11  1  0  0  0  0
  9 12  1  0  0  0  0
 11 13  1  0  0  0  0
 12 14  2  0  0  0  0
 12 15  1  0  0  0  0
 13 16  1  0  0  0  0
 15 17  1  0  0  0  0
 15 18  1  0  0  0  0
 16 19  2  0  0  0  0
 16 20  1  0  0  0  0
 20 21  1  0  0  0  0
 21 22  1  0  0  0  0
 22 23  2  0  0  0  0
 22 24  1  0  0  0  0
 23 25  1  0  0  0  0
 24 26  2  0  0  0  0
 25 27  2  0  0  0  0
 26 27  1  0  0  0  0
M  END
>  <MolRegNo>
338440

>  <m>
>

>  <Value>
1.0e5

>  <Unit>
nM

>  <Type>
EC50

>  <Ligand Efficiency>


>  <Binding Efficiency>


>  <Surface Efficiency>


>  <Assay Index>
256675

>  <Assay Category>


>  <Assay Organism>
SARS coronavirus

>  <Target ID>
100499

>  <Target Name>
SARS coronavirus

>  <Target Organism>
SARS coronavirus

>  <Target Description>
Target is a complete organism

>  <Sequence Accession>


>  <Reference>
J. Med. Chem. 49 (3), 1198-1201 (2006)

>  <Pubmed ID>
16451084

>  <DOI>
10.1021/jm0507678

>  <InChI-Key>
HMXBVASPAGOLIL-UHFFFAOYSA-N

>  <Molecular Formula>
C18H24N3O5F

>  <Monoisotopic Mass>
381.170000

>  <Druglikeness>
-10.106

$$$$
Compound 229
Actelion Java MolfileCreator 1.0

 27 27  0  0  0  0  0  0  0  0999 V2000
    0.0000   -0.0000   -0.0000 F   0  0  0  0  0  0  0  0  0  0  0  0
   -1.3024    0.7578   -0.0000 C   0  0  0  0  0  0  0  0  0  0  0  0
   -2.6048    0.0237   -0.0000 C   0  0  0  0  0  0  0  0  0  0  0  0
   -2.6166   -1.4563   -0.0000 O   0  0  0  0  0  0  0  0  0  0  0  0
   -3.9072    0.7814   -0.0000 C   0  0  0  0  0  0  0  0  0  0  0  0
   -5.2095    0.0474   -0.0000 N   0  0  0  0  0  0  0  0  0  0  0  0
   -3.9190    2.2851   -0.0000 C   0  0  0  0  0  0  0  0  0  0  0  0
   -6.5119    0.8051   -0.0000 C   0  0  0  0  0  0  0  0  0  0  0  0
   -2.6403    3.0428   -0.0000 C   0  0  0  0  0  0  0  0  0  0  0  0
   -6.5238    2.3088   -0.0000 O   0  0  0  0  0  0  0  0  0  0  0  0
   -7.8143    0.0710   -0.0000 C   0  0  0  0  0  0  0  0  0  0  0  0
   -2.6521    4.5465   -0.0000 C   0  0  0  0  0  0  0  0  0  0  0  0
   -9.1167    0.8288   -0.0000 N   0  0  0  0  0  0  0  0  0  0  0  0
   -3.9545    5.3043   -0.0000 O   0  0  0  0  0  0  0  0  0  0  0  0
   -1.3734    5.3043   -0.0000 N   0  0  0  0  0  0  0  0  0  0  0  0
  -10.4191    0.0947   -0.0000 C   0  0  0  0  0  0  0  0  0  0  0  0
   -0.0947    4.5702   -0.0000 C   0  0  0  0  0  0  0  0  0  0  0  0
   -1.3853    6.8079   -0.0000 C   0  0  0  0  0  0  0  0  0  0  0  0
  -10.4309   -1.3853   -0.0000 O   0  0  0  0  0  0  0  0  0  0  0  0
  -11.7215    0.8525   -0.0000 O   0  0  0  0  0  0  0  0  0  0  0  0
  -13.0239    0.1184   -0.0000 C   0  0  0  0  0  0  0  0  0  0  0  0
  -14.3263    0.8762   -0.0000 C   0  0  0  0  0  0  0  0  0  0  0  0
  -15.6405    0.1421   -0.0000 C   0  0  0  0  0  0  0  0  0  0  0  0
  -14.3381    2.3917   -0.0000 C   0  0  0  0  0  0  0  0  0  0  0  0
  -16.9429    0.8998   -0.0000 C   0  0  0  0  0  0  0  0  0  0  0  0
  -15.6405    3.1494   -0.0000 C   0  0  0  0  0  0  0  0  0  0  0  0
  -16.9547    2.4153   -0.0000 C   0  0  0  0  0  0  0  0  0  0  0  0
  1  2  1  0  0  0  0
  2  3  1  0  0  0  0
  3  4  2  0  0  0  0
  3  5  1  0  0  0  0
  5  6  1  0  0  0  0
  5  7  1  0  0  0  0
  6  8  1  0  0  0  0
  7  9  1  0  0  0  0
  8 10  2  0  0  0  0
  8 11  1  0  0  0  0
  9 12  1  0  0  0  0
 11 13  1  0  0  0  0
 12 14  2  0  0  0  0
 12 15  1  0  0  0  0
 13 16  1  0  0  0  0
 15 17  1  0  0  0  0
 15 18  1  0  0  0  0
 16 19  2  0  0  0  0
 16 20  1  0  0  0  0
 20 21  1  0  0  0  0
 21 22  1  0  0  0  0
 22 23  2  0  0  0  0
 22 24  1  0  0  0  0
 23 25  1  0  0  0  0
 24 26  2  0  0  0  0
 25 27  2  0  0  0  0
 26 27  1  0  0  0  0
M  END
>  <MolRegNo>
338440

>  <m>
>

>  <Value>
1.0e5

>  <Unit>
nM

>  <Type>
EC50

>  <Ligand Efficiency>


>  <Binding Efficiency>


>  <Surface Efficiency>


>  <Assay Index>
256676

>  <Assay Category>


>  <Assay Organism>
SARS coronavirus

>  <Target ID>
100499

>  <Target Name>
SARS coronavirus

>  <Target Organism>
SARS coronavirus

>  <Target Description>
Target is a complete organism

>  <Sequence Accession>


>  <Reference>
J. Med. Chem. 49 (3), 1198-1201 (2006)

>  <Pubmed ID>
16451084

>  <DOI>
10.1021/jm0507678

>  <InChI-Key>
HMXBVASPAGOLIL-UHFFFAOYSA-N

>  <Molecular Formula>
C18H24N3O5F

>  <Monoisotopic Mass>
381.170000

>  <Druglikeness>
-10.106

$$$$
Compound 230
Actelion Java MolfileCreator 1.0

 12 12  0  0  0  0  0  0  0  0999 V2000
    0.0000   -0.0000   -0.0000 O   0  0  0  0  0  0  0  0  0  0  0  0
   -0.0118    1.5102   -0.0000 C   0  0  0  0  0  0  0  0  0  0  0  0
    1.2742    2.2653   -0.0000 O   0  0  0  0  0  0  0  0  0  0  0  0
   -1.3214    2.2653   -0.0000 C   0  0  0  0  0  0  0  0  0  0  0  0
    2.5602    1.5220   -0.0000 C   0  0  0  0  0  0  0  0  0  0  0  0
   -2.0765    3.5749   -0.0000 N   0  0  0  0  0  0  0  0  0  0  0  0
   -2.8316    2.2771   -0.0000 C   0  0  0  0  0  0  0  0  0  0  0  0
   -2.0883    5.0851   -0.0000 C   0  0  0  0  0  0  0  0  0  0  0  0
   -0.8023    5.8402   -0.0000 C   0  0  0  0  0  0  0  0  0  0  0  0
   -0.8141    7.3504   -0.0000 O   0  0  0  0  0  0  0  0  0  0  0  0
    0.4837    5.1087   -0.0000 O   0  0  0  0  0  0  0  0  0  0  0  0
    0.4719    3.6221   -0.0000 C   0  0  0  0  0  0  0  0  0  0  0  0
  1  2  2  0  0  0  0
  2  3  1  0  0  0  0
  2  4  1  0  0  0  0
  3  5  1  0  0  0  0
  4  6  1  0  0  0  0
  4  7  1  0  0  0  0
  6  8  1  0  0  0  0
  8  9  1  0  0  0  0
  9 10  2  0  0  0  0
  9 11  1  0  0  0  0
 11 12  1  0  0  0  0
  6  7  1  0  0  0  0
M  END
>  <MolRegNo>
333511

>  <m>
=

>  <Value>
30

>  <Unit>
%

>  <Type>
Inhibition

>  <Ligand Efficiency>


>  <Binding Efficiency>


>  <Surface Efficiency>


>  <Assay Index>
254531

>  <Assay Category>


>  <Assay Organism>
SARS coronavirus

>  <Target ID>
20012

>  <Target Name>
SARS coronavirus 3C-like proteinase

>  <Target Organism>
SARS coronavirus

>  <Target Description>
Target is a single protein chain

>  <Sequence Accession>
P0C6U8

>  <Reference>
Bioorg. Med. Chem. Lett. 15 (24), 5365-5369 (2005)

>  <Pubmed ID>
16216498

>  <DOI>
10.1016/j.bmcl.2005.09.012

>  <InChI-Key>
HMYWTXJDSDVOFH-UHFFFAOYSA-N

>  <Molecular Formula>
C7H11NO4

>  <Monoisotopic Mass>
173.068809

>  <Druglikeness>
-0.41234

$$$$
Compound 231
Actelion Java MolfileCreator 1.0

 27 30  0  0  0  0  0  0  0  0999 V2000
    0.0000   -0.0000   -0.0000 O   0  0  0  0  0  0  0  0  0  0  0  0
   -0.4906    1.1368   -0.0000 C   0  0  0  0  0  0  0  0  0  0  0  0
   -1.9744    1.4957   -0.0000 N   0  0  0  0  0  0  0  0  0  0  0  0
    0.2752    2.4650   -0.0000 C   0  0  0  0  0  0  0  0  0  0  0  0
   -2.1538    3.0154   -0.0000 N   0  0  0  0  0  0  0  0  0  0  0  0
   -3.1350    0.4906   -0.0000 C   0  0  0  0  0  0  0  0  0  0  0  0
   -0.7538    3.6137   -0.0000 C   0  0  0  0  0  0  0  0  0  0  0  0
    1.7829    2.6325   -0.0000 C   0  0  0  0  0  0  0  0  0  0  0  0
   -4.5949    0.9812   -0.0000 C   0  0  0  0  0  0  0  0  0  0  0  0
   -2.8359   -0.9932   -0.0000 C   0  0  0  0  0  0  0  0  0  0  0  0
   -0.4427    5.1214   -0.0000 C   0  0  0  0  0  0  0  0  0  0  0  0
    2.6684    1.4000   -0.0000 C   0  0  0  0  0  0  0  0  0  0  0  0
   -5.7555   -0.0239   -0.0000 C   0  0  0  0  0  0  0  0  0  0  0  0
   -3.9966   -1.9983   -0.0000 C   0  0  0  0  0  0  0  0  0  0  0  0
   -1.5077    6.2461   -0.0000 C   0  0  0  0  0  0  0  0  0  0  0  0
    1.0410    5.4803   -0.0000 C   0  0  0  0  0  0  0  0  0  0  0  0
    4.1761    1.4239   -0.0000 O   0  0  0  0  0  0  0  0  0  0  0  0
    2.1658   -0.0239   -0.0000 C   0  0  0  0  0  0  0  0  0  0  0  0
   -7.2154    0.4786   -0.0000 C   0  0  0  0  0  0  0  0  0  0  0  0
   -5.4564   -1.5077   -0.0000 C   0  0  0  0  0  0  0  0  0  0  0  0
   -1.0769    7.7179   -0.0000 C   0  0  0  0  0  0  0  0  0  0  0  0
    1.4718    6.9521   -0.0000 C   0  0  0  0  0  0  0  0  0  0  0  0
    4.6308   -0.0239   -0.0000 C   0  0  0  0  0  0  0  0  0  0  0  0
    3.3863   -0.9214   -0.0000 C   0  0  0  0  0  0  0  0  0  0  0  0
   -7.4667    1.6872   -0.0000 O   0  0  0  0  0  0  0  0  0  0  0  0
   -8.1487   -0.3231   -0.0000 O   0  0  0  0  0  0  0  0  0  0  0  0
    0.3949    8.0889   -0.0000 C   0  0  0  0  0  0  0  0  0  0  0  0
  1  2  2  0  0  0  0
  2  3  1  0  0  0  0
  2  4  1  0  0  0  0
  3  5  1  0  0  0  0
  3  6  1  0  0  0  0
  4  7  1  0  0  0  0
  4  8  2  0  0  0  0
  6  9  2  0  0  0  0
  6 10  1  0  0  0  0
  7 11  1  0  0  0  0
  8 12  1  0  0  0  0
  9 13  1  0  0  0  0
 10 14  2  0  0  0  0
 11 15  2  0  0  0  0
 11 16  1  0  0  0  0
 12 17  1  0  0  0  0
 12 18  2  0  0  0  0
 13 19  1  0  0  0  0
 13 20  2  0  0  0  0
 15 21  1  0  0  0  0
 16 22  2  0  0  0  0
 17 23  1  0  0  0  0
 18 24  1  0  0  0  0
 19 25  2  0  0  0  0
 19 26  1  0  0  0  0
 21 27  2  0  0  0  0
  5  7  2  0  0  0  0
 14 20  1  0  0  0  0
 22 27  1  0  0  0  0
 23 24  2  0  0  0  0
M  END
>  <MolRegNo>
2087682

>  <m>
>

>  <Value>
50000

>  <Unit>
nM

>  <Type>
IC50

>  <Ligand Efficiency>


>  <Binding Efficiency>


>  <Surface Efficiency>


>  <Assay Index>
1017144

>  <Assay Category>


>  <Assay Organism>
SARS coronavirus

>  <Target ID>
101075

>  <Target Name>
Replicase polyprotein 1ab

>  <Target Organism>
SARS coronavirus

>  <Target Description>
Target is a single protein chain

>  <Sequence Accession>
P0C6X7

>  <Reference>
Bioorg. Med. Chem. 24 (13), 3035-3042 (2016)

>  <Pubmed ID>
27240464

>  <DOI>
10.1016/j.bmc.2016.05.013

>  <InChI-Key>
HPJRFNJSAWHFEU-UHFFFAOYSA-N

>  <Molecular Formula>
C21H14N2O4

>  <Monoisotopic Mass>
358.095358

>  <Druglikeness>
3.8279

$$$$
Compound 232
Actelion Java MolfileCreator 1.0

 18 19  0  0  0  0  0  0  0  0999 V2000
    0.0000   -0.0000   -0.0000 O   0  0  0  0  0  0  0  0  0  0  0  0
   -1.5014    0.0117   -0.0000 C   0  0  0  0  0  0  0  0  0  0  0  0
   -2.3929   -1.1965   -0.0000 N   0  0  0  0  0  0  0  0  0  0  0  0
   -2.3929    1.2434   -0.0000 C   0  0  0  0  0  0  0  0  0  0  0  0
   -3.8357   -0.7273   -0.0000 C   0  0  0  0  0  0  0  0  0  0  0  0
   -1.9472   -2.6041   -0.0000 C   0  0  0  0  0  0  0  0  0  0  0  0
   -1.9472    2.6745   -0.0000 O   0  0  0  0  0  0  0  0  0  0  0  0
   -3.8357    0.7859   -0.0000 C   0  0  0  0  0  0  0  0  0  0  0  0
   -5.1378   -1.4663   -0.0000 C   0  0  0  0  0  0  0  0  0  0  0  0
   -2.9560   -3.6950   -0.0000 C   0  0  0  0  0  0  0  0  0  0  0  0
   -5.1495    1.5366   -0.0000 C   0  0  0  0  0  0  0  0  0  0  0  0
   -6.4398   -0.7038   -0.0000 C   0  0  0  0  0  0  0  0  0  0  0  0
   -2.5102   -5.1026   -0.0000 C   0  0  0  0  0  0  0  0  0  0  0  0
   -6.4398    0.7976   -0.0000 C   0  0  0  0  0  0  0  0  0  0  0  0
   -3.5190   -6.1935   -0.0000 C   0  0  0  0  0  0  0  0  0  0  0  0
   -7.7418    1.5484   -0.0000 C   0  0  0  0  0  0  0  0  0  0  0  0
   -7.7536    3.0498   -0.0000 O   0  0  0  0  0  0  0  0  0  0  0  0
   -9.0439    0.8094   -0.0000 N   0  0  0  0  0  0  0  0  0  0  0  0
  1  2  2  0  0  0  0
  2  3  1  0  0  0  0
  2  4  1  0  0  0  0
  3  5  1  0  0  0  0
  3  6  1  0  0  0  0
  4  7  2  0  0  0  0
  4  8  1  0  0  0  0
  5  9  1  0  0  0  0
  6 10  1  0  0  0  0
  8 11  1  0  0  0  0
  9 12  2  0  0  0  0
 10 13  1  0  0  0  0
 11 14  2  0  0  0  0
 13 15  1  0  0  0  0
 14 16  1  0  0  0  0
 16 17  2  0  0  0  0
 16 18  1  0  0  0  0
  5  8  2  0  0  0  0
 12 14  1  0  0  0  0
M  END
>  <MolRegNo>
348533

>  <m>
=

>  <Value>
19000

>  <Unit>
nM

>  <Type>
IC50

>  <Ligand Efficiency>
0.36

>  <Binding Efficiency>
19.17

>  <Surface Efficiency>
5.87

>  <Assay Index>
262886

>  <Assay Category>


>  <Assay Organism>
SARS coronavirus

>  <Target ID>
20012

>  <Target Name>
SARS coronavirus 3C-like proteinase

>  <Target Organism>
SARS coronavirus

>  <Target Description>
Target is a single protein chain

>  <Sequence Accession>
P0C6U8

>  <Reference>
J. Med. Chem. 49 (12), 3440-3443 (2006)

>  <Pubmed ID>
16759084

>  <DOI>
10.1021/jm0602357

>  <InChI-Key>
HRVIHQDVDQVYBE-UHFFFAOYSA-N

>  <Molecular Formula>
C13H14N2O3

>  <Monoisotopic Mass>
246.100443

>  <Druglikeness>
-1.2428

$$$$
Compound 233
Actelion Java MolfileCreator 1.0

 18 19  0  0  0  0  0  0  0  0999 V2000
    0.0000   -0.0000   -0.0000 O   0  0  0  0  0  0  0  0  0  0  0  0
   -1.5014    0.0117   -0.0000 C   0  0  0  0  0  0  0  0  0  0  0  0
   -2.3929   -1.1965   -0.0000 N   0  0  0  0  0  0  0  0  0  0  0  0
   -2.3929    1.2434   -0.0000 C   0  0  0  0  0  0  0  0  0  0  0  0
   -3.8357   -0.7273   -0.0000 C   0  0  0  0  0  0  0  0  0  0  0  0
   -1.9472   -2.6041   -0.0000 C   0  0  0  0  0  0  0  0  0  0  0  0
   -1.9472    2.6745   -0.0000 O   0  0  0  0  0  0  0  0  0  0  0  0
   -3.8357    0.7859   -0.0000 C   0  0  0  0  0  0  0  0  0  0  0  0
   -5.1378   -1.4663   -0.0000 C   0  0  0  0  0  0  0  0  0  0  0  0
   -2.9560   -3.6950   -0.0000 C   0  0  0  0  0  0  0  0  0  0  0  0
   -5.1495    1.5366   -0.0000 C   0  0  0  0  0  0  0  0  0  0  0  0
   -6.4398   -0.7038   -0.0000 C   0  0  0  0  0  0  0  0  0  0  0  0
   -2.5102   -5.1026   -0.0000 C   0  0  0  0  0  0  0  0  0  0  0  0
   -6.4398    0.7976   -0.0000 C   0  0  0  0  0  0  0  0  0  0  0  0
   -3.5190   -6.1935   -0.0000 C   0  0  0  0  0  0  0  0  0  0  0  0
   -7.7418    1.5484   -0.0000 C   0  0  0  0  0  0  0  0  0  0  0  0
   -7.7536    3.0498   -0.0000 O   0  0  0  0  0  0  0  0  0  0  0  0
   -9.0439    0.8094   -0.0000 N   0  0  0  0  0  0  0  0  0  0  0  0
  1  2  2  0  0  0  0
  2  3  1  0  0  0  0
  2  4  1  0  0  0  0
  3  5  1  0  0  0  0
  3  6  1  0  0  0  0
  4  7  2  0  0  0  0
  4  8  1  0  0  0  0
  5  9  1  0  0  0  0
  6 10  1  0  0  0  0
  8 11  1  0  0  0  0
  9 12  2  0  0  0  0
 10 13  1  0  0  0  0
 11 14  2  0  0  0  0
 13 15  1  0  0  0  0
 14 16  1  0  0  0  0
 16 17  2  0  0  0  0
 16 18  1  0  0  0  0
  5  8  2  0  0  0  0
 12 14  1  0  0  0  0
M  END
>  <MolRegNo>
348533

>  <m>
=

>  <Value>
19055

>  <Unit>
nM

>  <Type>
Ki

>  <Ligand Efficiency>


>  <Binding Efficiency>


>  <Surface Efficiency>


>  <Assay Index>
262886

>  <Assay Category>


>  <Assay Organism>
SARS coronavirus

>  <Target ID>
20012

>  <Target Name>
SARS coronavirus 3C-like proteinase

>  <Target Organism>
SARS coronavirus

>  <Target Description>
Target is a single protein chain

>  <Sequence Accession>
P0C6U8

>  <Reference>
J. Med. Chem. 49 (12), 3440-3443 (2006)

>  <Pubmed ID>
16759084

>  <DOI>
10.1021/jm0602357

>  <InChI-Key>
HRVIHQDVDQVYBE-UHFFFAOYSA-N

>  <Molecular Formula>
C13H14N2O3

>  <Monoisotopic Mass>
246.100443

>  <Druglikeness>
-1.2428

$$$$
Compound 234
Actelion Java MolfileCreator 1.0

 18 19  0  0  0  0  0  0  0  0999 V2000
    0.0000   -0.0000   -0.0000 O   0  0  0  0  0  0  0  0  0  0  0  0
   -1.5014    0.0117   -0.0000 C   0  0  0  0  0  0  0  0  0  0  0  0
   -2.3929   -1.1965   -0.0000 N   0  0  0  0  0  0  0  0  0  0  0  0
   -2.3929    1.2434   -0.0000 C   0  0  0  0  0  0  0  0  0  0  0  0
   -3.8357   -0.7273   -0.0000 C   0  0  0  0  0  0  0  0  0  0  0  0
   -1.9472   -2.6041   -0.0000 C   0  0  0  0  0  0  0  0  0  0  0  0
   -1.9472    2.6745   -0.0000 O   0  0  0  0  0  0  0  0  0  0  0  0
   -3.8357    0.7859   -0.0000 C   0  0  0  0  0  0  0  0  0  0  0  0
   -5.1378   -1.4663   -0.0000 C   0  0  0  0  0  0  0  0  0  0  0  0
   -2.9560   -3.6950   -0.0000 C   0  0  0  0  0  0  0  0  0  0  0  0
   -5.1495    1.5366   -0.0000 C   0  0  0  0  0  0  0  0  0  0  0  0
   -6.4398   -0.7038   -0.0000 C   0  0  0  0  0  0  0  0  0  0  0  0
   -2.5102   -5.1026   -0.0000 C   0  0  0  0  0  0  0  0  0  0  0  0
   -6.4398    0.7976   -0.0000 C   0  0  0  0  0  0  0  0  0  0  0  0
   -3.5190   -6.1935   -0.0000 C   0  0  0  0  0  0  0  0  0  0  0  0
   -7.7418    1.5484   -0.0000 C   0  0  0  0  0  0  0  0  0  0  0  0
   -7.7536    3.0498   -0.0000 O   0  0  0  0  0  0  0  0  0  0  0  0
   -9.0439    0.8094   -0.0000 N   0  0  0  0  0  0  0  0  0  0  0  0
  1  2  2  0  0  0  0
  2  3  1  0  0  0  0
  2  4  1  0  0  0  0
  3  5  1  0  0  0  0
  3  6  1  0  0  0  0
  4  7  2  0  0  0  0
  4  8  1  0  0  0  0
  5  9  1  0  0  0  0
  6 10  1  0  0  0  0
  8 11  1  0  0  0  0
  9 12  2  0  0  0  0
 10 13  1  0  0  0  0
 11 14  2  0  0  0  0
 13 15  1  0  0  0  0
 14 16  1  0  0  0  0
 16 17  2  0  0  0  0
 16 18  1  0  0  0  0
  5  8  2  0  0  0  0
 12 14  1  0  0  0  0
M  END
>  <MolRegNo>
348533

>  <m>
=

>  <Value>
19000

>  <Unit>
nM

>  <Type>
Ki

>  <Ligand Efficiency>
0.36

>  <Binding Efficiency>
19.17

>  <Surface Efficiency>
5.87

>  <Assay Index>
262886

>  <Assay Category>


>  <Assay Organism>
SARS coronavirus

>  <Target ID>
20012

>  <Target Name>
SARS coronavirus 3C-like proteinase

>  <Target Organism>
SARS coronavirus

>  <Target Description>
Target is a single protein chain

>  <Sequence Accession>
P0C6U8

>  <Reference>
J. Med. Chem. 49 (12), 3440-3443 (2006)

>  <Pubmed ID>
16759084

>  <DOI>
10.1021/jm0602357

>  <InChI-Key>
HRVIHQDVDQVYBE-UHFFFAOYSA-N

>  <Molecular Formula>
C13H14N2O3

>  <Monoisotopic Mass>
246.100443

>  <Druglikeness>
-1.2428

$$$$
Compound 235
Actelion Java MolfileCreator 1.0

 32 36  0  0  0  0  0  0  0  0999 V2000
    0.0000   -0.0000   -0.0000 O   0  0  0  0  0  0  0  0  0  0  0  0
   -1.3072    0.7537   -0.0000 C   0  0  0  0  0  0  0  0  0  0  0  0
   -2.6144    0.0118   -0.0000 C   0  0  0  0  0  0  0  0  0  0  0  0
   -1.3190    2.2611   -0.0000 C   0  0  0  0  0  0  0  0  0  0  0  0
   -2.6262   -1.4721   -0.0000 O   0  0  0  0  0  0  0  0  0  0  0  0
   -3.9216    0.7655   -0.0000 C   0  0  0  0  0  0  0  0  0  0  0  0
   -2.6262    3.0148   -0.0000 C   0  0  0  0  0  0  0  0  0  0  0  0
   -0.0353    3.0148   -0.0000 C   0  0  0  0  0  0  0  0  0  0  0  0
   -3.9333    2.2729   -0.0000 O   0  0  0  0  0  0  0  0  0  0  0  0
   -5.2288    0.0236   -0.0000 C   0  0  0  0  0  0  0  0  0  0  0  0
   -2.6379    4.5222   -0.0000 C   0  0  0  0  0  0  0  0  0  0  0  0
    1.2483    2.2846   -0.0000 O   0  0  0  0  0  0  0  0  0  0  0  0
   -0.0471    4.5222   -0.0000 C   0  0  0  0  0  0  0  0  0  0  0  0
   -6.5359    0.7772   -0.0000 C   0  0  0  0  0  0  0  0  0  0  0  0
   -5.2405   -1.4603   -0.0000 C   0  0  0  0  0  0  0  0  0  0  0  0
   -1.3543    5.2759   -0.0000 C   0  0  0  0  0  0  0  0  0  0  0  0
   -7.8431    0.0353   -0.0000 C   0  0  0  0  0  0  0  0  0  0  0  0
   -6.5477   -2.2022   -0.0000 C   0  0  0  0  0  0  0  0  0  0  0  0
   -1.3661    6.7832   -0.0000 O   0  0  0  0  0  0  0  0  0  0  0  0
   -9.2799    0.5064   -0.0000 O   0  0  0  0  0  0  0  0  0  0  0  0
   -7.8549   -1.4485   -0.0000 C   0  0  0  0  0  0  0  0  0  0  0  0
   -0.0824    7.5369   -0.0000 C   0  0  0  0  0  0  0  0  0  0  0  0
  -10.1749   -0.6948   -0.0000 C   0  0  0  0  0  0  0  0  0  0  0  0
   -9.2916   -1.8960   -0.0000 O   0  0  0  0  0  0  0  0  0  0  0  0
   -0.0942    9.0443   -0.0000 C   0  0  0  0  0  0  0  0  0  0  0  0
    1.1894    9.7980   -0.0000 C   0  0  0  0  0  0  0  0  0  0  0  0
   -1.4014    9.7980   -0.0000 C   0  0  0  0  0  0  0  0  0  0  0  0
    1.1776   11.3054   -0.0000 C   0  0  0  0  0  0  0  0  0  0  0  0
   -1.4132   11.3054   -0.0000 C   0  0  0  0  0  0  0  0  0  0  0  0
    2.4613   12.0591   -0.0000 C   0  0  0  0  0  0  0  0  0  0  0  0
   -0.1295   12.0591   -0.0000 C   0  0  0  0  0  0  0  0  0  0  0  0
    3.7449   12.8128   -0.0000 N   0  0  0  0  0  0  0  0  0  0  0  0
  1  2  2  0  0  0  0
  2  3  1  0  0  0  0
  2  4  1  0  0  0  0
  3  5  1  0  0  0  0
  3  6  2  0  0  0  0
  4  7  2  0  0  0  0
  4  8  1  0  0  0  0
  6  9  1  0  0  0  0
  6 10  1  0  0  0  0
  7 11  1  0  0  0  0
  8 12  1  0  0  0  0
  8 13  2  0  0  0  0
 10 14  2  0  0  0  0
 10 15  1  0  0  0  0
 11 16  2  0  0  0  0
 14 17  1  0  0  0  0
 15 18  2  0  0  0  0
 16 19  1  0  0  0  0
 17 20  1  0  0  0  0
 17 21  2  0  0  0  0
 19 22  1  0  0  0  0
 20 23  1  0  0  0  0
 21 24  1  0  0  0  0
 22 25  1  0  0  0  0
 25 26  2  0  0  0  0
 25 27  1  0  0  0  0
 26 28  1  0  0  0  0
 27 29  2  0  0  0  0
 28 30  1  0  0  0  0
 28 31  2  0  0  0  0
 30 32  3  0  0  0  0
  7  9  1  0  0  0  0
 13 16  1  0  0  0  0
 18 21  1  0  0  0  0
 23 24  1  0  0  0  0
 29 31  1  0  0  0  0
M  END
>  <MolRegNo>
564255

>  <m>
=

>  <Value>
42900

>  <Unit>
nM

>  <Type>
IC50

>  <Ligand Efficiency>
0.19

>  <Binding Efficiency>
10.17

>  <Surface Efficiency>
3.58

>  <Assay Index>
426933

>  <Assay Category>


>  <Assay Organism>
SARS coronavirus

>  <Target ID>
101075

>  <Target Name>
Replicase polyprotein 1ab

>  <Target Organism>
SARS coronavirus

>  <Target Description>
Target is a single protein chain

>  <Sequence Accession>
P0C6X7

>  <Reference>
Bioorg. Med. Chem. Lett. 19 (16), 4538-4541 (2009)

>  <Pubmed ID>
19625187

>  <DOI>
10.1016/j.bmcl.2009.07.009

>  <InChI-Key>
HUDLJTDCXGYOKM-UHFFFAOYSA-N

>  <Molecular Formula>
C24H15NO7

>  <Monoisotopic Mass>
429.084854

>  <Druglikeness>
-4.3291

$$$$
Compound 236
Actelion Java MolfileCreator 1.0

 32 36  0  0  0  0  0  0  0  0999 V2000
    0.0000   -0.0000   -0.0000 O   0  0  0  0  0  0  0  0  0  0  0  0
   -1.3072    0.7537   -0.0000 C   0  0  0  0  0  0  0  0  0  0  0  0
   -2.6144    0.0118   -0.0000 C   0  0  0  0  0  0  0  0  0  0  0  0
   -1.3190    2.2611   -0.0000 C   0  0  0  0  0  0  0  0  0  0  0  0
   -2.6262   -1.4721   -0.0000 O   0  0  0  0  0  0  0  0  0  0  0  0
   -3.9216    0.7655   -0.0000 C   0  0  0  0  0  0  0  0  0  0  0  0
   -2.6262    3.0148   -0.0000 C   0  0  0  0  0  0  0  0  0  0  0  0
   -0.0353    3.0148   -0.0000 C   0  0  0  0  0  0  0  0  0  0  0  0
   -3.9333    2.2729   -0.0000 O   0  0  0  0  0  0  0  0  0  0  0  0
   -5.2288    0.0236   -0.0000 C   0  0  0  0  0  0  0  0  0  0  0  0
   -2.6379    4.5222   -0.0000 C   0  0  0  0  0  0  0  0  0  0  0  0
    1.2483    2.2846   -0.0000 O   0  0  0  0  0  0  0  0  0  0  0  0
   -0.0471    4.5222   -0.0000 C   0  0  0  0  0  0  0  0  0  0  0  0
   -6.5359    0.7772   -0.0000 C   0  0  0  0  0  0  0  0  0  0  0  0
   -5.2405   -1.4603   -0.0000 C   0  0  0  0  0  0  0  0  0  0  0  0
   -1.3543    5.2759   -0.0000 C   0  0  0  0  0  0  0  0  0  0  0  0
   -7.8431    0.0353   -0.0000 C   0  0  0  0  0  0  0  0  0  0  0  0
   -6.5477   -2.2022   -0.0000 C   0  0  0  0  0  0  0  0  0  0  0  0
   -1.3661    6.7832   -0.0000 O   0  0  0  0  0  0  0  0  0  0  0  0
   -9.2799    0.5064   -0.0000 O   0  0  0  0  0  0  0  0  0  0  0  0
   -7.8549   -1.4485   -0.0000 C   0  0  0  0  0  0  0  0  0  0  0  0
   -0.0824    7.5369   -0.0000 C   0  0  0  0  0  0  0  0  0  0  0  0
  -10.1749   -0.6948   -0.0000 C   0  0  0  0  0  0  0  0  0  0  0  0
   -9.2916   -1.8960   -0.0000 O   0  0  0  0  0  0  0  0  0  0  0  0
   -0.0942    9.0443   -0.0000 C   0  0  0  0  0  0  0  0  0  0  0  0
    1.1894    9.7980   -0.0000 C   0  0  0  0  0  0  0  0  0  0  0  0
   -1.4014    9.7980   -0.0000 C   0  0  0  0  0  0  0  0  0  0  0  0
    1.1776   11.3054   -0.0000 C   0  0  0  0  0  0  0  0  0  0  0  0
   -1.4132   11.3054   -0.0000 C   0  0  0  0  0  0  0  0  0  0  0  0
    2.4613   12.0591   -0.0000 C   0  0  0  0  0  0  0  0  0  0  0  0
   -0.1295   12.0591   -0.0000 C   0  0  0  0  0  0  0  0  0  0  0  0
    3.7449   12.8128   -0.0000 N   0  0  0  0  0  0  0  0  0  0  0  0
  1  2  2  0  0  0  0
  2  3  1  0  0  0  0
  2  4  1  0  0  0  0
  3  5  1  0  0  0  0
  3  6  2  0  0  0  0
  4  7  2  0  0  0  0
  4  8  1  0  0  0  0
  6  9  1  0  0  0  0
  6 10  1  0  0  0  0
  7 11  1  0  0  0  0
  8 12  1  0  0  0  0
  8 13  2  0  0  0  0
 10 14  2  0  0  0  0
 10 15  1  0  0  0  0
 11 16  2  0  0  0  0
 14 17  1  0  0  0  0
 15 18  2  0  0  0  0
 16 19  1  0  0  0  0
 17 20  1  0  0  0  0
 17 21  2  0  0  0  0
 19 22  1  0  0  0  0
 20 23  1  0  0  0  0
 21 24  1  0  0  0  0
 22 25  1  0  0  0  0
 25 26  2  0  0  0  0
 25 27  1  0  0  0  0
 26 28  1  0  0  0  0
 27 29  2  0  0  0  0
 28 30  1  0  0  0  0
 28 31  2  0  0  0  0
 30 32  3  0  0  0  0
  7  9  1  0  0  0  0
 13 16  1  0  0  0  0
 18 21  1  0  0  0  0
 23 24  1  0  0  0  0
 29 31  1  0  0  0  0
M  END
>  <MolRegNo>
564255

>  <m>
=

>  <Value>
8100

>  <Unit>
nM

>  <Type>
IC50

>  <Ligand Efficiency>
0.22

>  <Binding Efficiency>
11.86

>  <Surface Efficiency>
4.17

>  <Assay Index>
426934

>  <Assay Category>


>  <Assay Organism>
SARS coronavirus

>  <Target ID>
101075

>  <Target Name>
Replicase polyprotein 1ab

>  <Target Organism>
SARS coronavirus

>  <Target Description>
Target is a single protein chain

>  <Sequence Accession>
P0C6X7

>  <Reference>
Bioorg. Med. Chem. Lett. 19 (16), 4538-4541 (2009)

>  <Pubmed ID>
19625187

>  <DOI>
10.1016/j.bmcl.2009.07.009

>  <InChI-Key>
HUDLJTDCXGYOKM-UHFFFAOYSA-N

>  <Molecular Formula>
C24H15NO7

>  <Monoisotopic Mass>
429.084854

>  <Druglikeness>
-4.3291

$$$$
Compound 237
Actelion Java MolfileCreator 1.0

 24 26  0  0  0  0  0  0  0  0999 V2000
    0.0000   -0.0000   -0.0000 S   0  0  0  0  0  0  0  0  0  0  0  0
   -0.4383    1.4570   -0.0000 O   0  0  0  0  0  0  0  0  0  0  0  0
    0.4146   -1.4333   -0.0000 O   0  0  0  0  0  0  0  0  0  0  0  0
    1.4451    0.4146   -0.0000 N   0  0  0  0  0  0  0  0  0  0  0  0
   -1.4451   -0.4501   -0.0000 C   0  0  0  0  0  0  0  0  0  0  0  0
    2.5112   -0.6278   -0.0000 C   0  0  0  0  0  0  0  0  0  0  0  0
   -1.9308   -1.8716   -0.0000 S   0  0  0  0  0  0  0  0  0  0  0  0
   -2.6770    0.4501   -0.0000 C   0  0  0  0  0  0  0  0  0  0  0  0
    2.2743   -2.0966   -0.0000 N   0  0  0  0  0  0  0  0  0  0  0  0
    3.9800   -0.3672   -0.0000 C   0  0  0  0  0  0  0  0  0  0  0  0
   -3.4470   -1.8597   -0.0000 C   0  0  0  0  0  0  0  0  0  0  0  0
   -3.8971   -0.4264   -0.0000 C   0  0  0  0  0  0  0  0  0  0  0  0
    3.6128   -2.7600   -0.0000 N   0  0  0  0  0  0  0  0  0  0  0  0
    4.6671   -1.6939   -0.0000 C   0  0  0  0  0  0  0  0  0  0  0  0
    6.1477   -1.9071   -0.0000 C   0  0  0  0  0  0  0  0  0  0  0  0
    7.1901   -0.8173   -0.0000 C   0  0  0  0  0  0  0  0  0  0  0  0
    6.8229   -3.2219   -0.0000 C   0  0  0  0  0  0  0  0  0  0  0  0
    8.5286   -1.4807   -0.0000 O   0  0  0  0  0  0  0  0  0  0  0  0
    6.9295    0.6752   -0.0000 C   0  0  0  0  0  0  0  0  0  0  0  0
    8.2917   -2.9613   -0.0000 C   0  0  0  0  0  0  0  0  0  0  0  0
    9.3578   -4.0037   -0.0000 C   0  0  0  0  0  0  0  0  0  0  0  0
   10.4120   -5.0579   -0.0000 C   0  0  0  0  0  0  0  0  0  0  0  0
   10.4002   -2.9258   -0.0000 C   0  0  0  0  0  0  0  0  0  0  0  0
    8.2917   -5.0579   -0.0000 C   0  0  0  0  0  0  0  0  0  0  0  0
  1  2  2  0  0  0  0
  1  3  2  0  0  0  0
  1  4  1  0  0  0  0
  1  5  1  0  0  0  0
  4  6  1  0  0  0  0
  5  7  1  0  0  0  0
  5  8  2  0  0  0  0
  6  9  1  0  0  0  0
  6 10  2  0  0  0  0
  7 11  1  0  0  0  0
  8 12  1  0  0  0  0
  9 13  1  0  0  0  0
 10 14  1  0  0  0  0
 14 15  1  0  0  0  0
 15 16  2  0  0  0  0
 15 17  1  0  0  0  0
 16 18  1  0  0  0  0
 16 19  1  0  0  0  0
 17 20  2  0  0  0  0
 20 21  1  0  0  0  0
 21 22  1  0  0  0  0
 21 23  1  0  0  0  0
 21 24  1  0  0  0  0
 11 12  2  0  0  0  0
 13 14  2  0  0  0  0
 18 20  1  0  0  0  0
M  END
>  <MolRegNo>
356301

>  <m>
=

>  <Value>
10000

>  <Unit>
nM

>  <Type>
IC50

>  <Ligand Efficiency>
0.28

>  <Binding Efficiency>
13.68

>  <Surface Efficiency>
5.68

>  <Assay Index>
266027

>  <Assay Category>


>  <Assay Organism>
SARS coronavirus

>  <Target ID>
20012

>  <Target Name>
SARS coronavirus 3C-like proteinase

>  <Target Organism>
SARS coronavirus

>  <Target Description>
Target is a single protein chain

>  <Sequence Accession>
P0C6U8

>  <Reference>
J. Med. Chem. 49 (17), 5154-5161 (2006)

>  <Pubmed ID>
16913704

>  <DOI>
10.1021/jm060207o

>  <InChI-Key>
HUNAFKUGDBHPEN-UHFFFAOYSA-N

>  <Molecular Formula>
C16H19N3O3S2

>  <Monoisotopic Mass>
365.086782

>  <Druglikeness>
-1.3878

$$$$
Compound 238
Actelion Java MolfileCreator 1.0

 15 16  0  0  0  0  0  0  0  0999 V2000
    0.0000   -0.0000   -0.0000 Cl  0  0  0  0  0  0  0  0  0  0  0  0
   -1.3040   -0.7350   -0.0000 C   0  0  0  0  0  0  0  0  0  0  0  0
   -1.3159   -2.2287   -0.0000 C   0  0  0  0  0  0  0  0  0  0  0  0
   -2.6080    0.0237   -0.0000 C   0  0  0  0  0  0  0  0  0  0  0  0
   -2.6317   -2.9636   -0.0000 N   0  0  0  0  0  0  0  0  0  0  0  0
   -3.9120   -0.7113   -0.0000 C   0  0  0  0  0  0  0  0  0  0  0  0
   -3.9357   -2.2050   -0.0000 C   0  0  0  0  0  0  0  0  0  0  0  0
   -5.2160    0.0474   -0.0000 O   0  0  0  0  0  0  0  0  0  0  0  0
   -6.5200   -0.6876   -0.0000 C   0  0  0  0  0  0  0  0  0  0  0  0
   -6.5319   -2.1694   -0.0000 O   0  0  0  0  0  0  0  0  0  0  0  0
   -7.8240    0.0711   -0.0000 C   0  0  0  0  0  0  0  0  0  0  0  0
   -9.1992   -0.5216   -0.0000 C   0  0  0  0  0  0  0  0  0  0  0  0
   -7.9900    1.5648   -0.0000 C   0  0  0  0  0  0  0  0  0  0  0  0
  -10.2068    0.6046   -0.0000 O   0  0  0  0  0  0  0  0  0  0  0  0
   -9.4600    1.8849   -0.0000 C   0  0  0  0  0  0  0  0  0  0  0  0
  1  2  1  0  0  0  0
  2  3  2  0  0  0  0
  2  4  1  0  0  0  0
  3  5  1  0  0  0  0
  4  6  2  0  0  0  0
  5  7  2  0  0  0  0
  6  8  1  0  0  0  0
  8  9  1  0  0  0  0
  9 10  2  0  0  0  0
  9 11  1  0  0  0  0
 11 12  2  0  0  0  0
 11 13  1  0  0  0  0
 12 14  1  0  0  0  0
 13 15  2  0  0  0  0
  6  7  1  0  0  0  0
 14 15  1  0  0  0  0
M  END
>  <MolRegNo>
371867

>  <m>
=

>  <Value>
89

>  <Unit>
%

>  <Type>
Inhibition

>  <Ligand Efficiency>


>  <Binding Efficiency>


>  <Surface Efficiency>


>  <Assay Index>
278390

>  <Assay Category>


>  <Assay Organism>
SARS coronavirus

>  <Target ID>
20012

>  <Target Name>
SARS coronavirus 3C-like proteinase

>  <Target Organism>
SARS coronavirus

>  <Target Description>
Target is a single protein chain

>  <Sequence Accession>
P0C6U8

>  <Reference>
J. Med. Chem. 50 (8), 1850-1864 (2007)

>  <Pubmed ID>
17381079

>  <DOI>
10.1021/jm061425k

>  <InChI-Key>
HUWOATYOYFFDMQ-UHFFFAOYSA-N

>  <Molecular Formula>
C10H6NO3Cl

>  <Monoisotopic Mass>
223.003621

>  <Druglikeness>
-0.2615

$$$$
Compound 239
Actelion Java MolfileCreator 1.0

 31 32  0  0  0  0  0  0  0  0999 V2000
    0.0000   -0.0000   -0.0000 Cl  0  0  0  0  0  0  0  0  0  0  0  0
    1.2944    0.7600   -0.0000 C   0  0  0  0  0  0  0  0  0  0  0  0
    1.2825    2.2800   -0.0000 Cl  0  0  0  0  0  0  0  0  0  0  0  0
    2.5887    0.0237   -0.0000 C   0  0  0  0  0  0  0  0  0  0  0  0
    2.5769   -1.4725   -0.0000 Cl  0  0  0  0  0  0  0  0  0  0  0  0
    3.8831    0.7837   -0.0000 C   0  0  0  0  0  0  0  0  0  0  0  0
    3.8712    2.3037   -0.0000 O   0  0  0  0  0  0  0  0  0  0  0  0
    5.1775    0.0475   -0.0000 O   0  0  0  0  0  0  0  0  0  0  0  0
    6.4719    0.8075   -0.0000 C   0  0  0  0  0  0  0  0  0  0  0  0
    6.4600    2.3275   -0.0000 C   0  0  0  0  0  0  0  0  0  0  0  0
    7.7662    0.0712   -0.0000 C   0  0  0  0  0  0  0  0  0  0  0  0
    7.7425    3.0875   -0.0000 C   0  0  0  0  0  0  0  0  0  0  0  0
    9.0606    0.8312   -0.0000 C   0  0  0  0  0  0  0  0  0  0  0  0
    9.0369    2.3512   -0.0000 C   0  0  0  0  0  0  0  0  0  0  0  0
   10.3194    3.1231   -0.0000 S   0  0  0  0  0  0  0  0  0  0  0  0
   11.0675    1.8406   -0.0000 O   0  0  0  0  0  0  0  0  0  0  0  0
    9.5475    4.4294   -0.0000 O   0  0  0  0  0  0  0  0  0  0  0  0
   11.6019    3.8950   -0.0000 C   0  0  0  0  0  0  0  0  0  0  0  0
   12.8962    3.1587   -0.0000 C   0  0  0  0  0  0  0  0  0  0  0  0
   11.5781    5.4031   -0.0000 C   0  0  0  0  0  0  0  0  0  0  0  0
   14.1787    3.9306   -0.0000 C   0  0  0  0  0  0  0  0  0  0  0  0
   12.8606    6.1869   -0.0000 C   0  0  0  0  0  0  0  0  0  0  0  0
   14.1550    5.4506   -0.0000 C   0  0  0  0  0  0  0  0  0  0  0  0
   15.4375    6.2225   -0.0000 O   0  0  0  0  0  0  0  0  0  0  0  0
   16.7319    5.4981   -0.0000 C   0  0  0  0  0  0  0  0  0  0  0  0
   16.7319    4.0019   -0.0000 O   0  0  0  0  0  0  0  0  0  0  0  0
   18.0144    6.2700   -0.0000 C   0  0  0  0  0  0  0  0  0  0  0  0
   17.9906    7.7900   -0.0000 Cl  0  0  0  0  0  0  0  0  0  0  0  0
   19.3087    5.5456   -0.0000 C   0  0  0  0  0  0  0  0  0  0  0  0
   19.3087    4.0494   -0.0000 Cl  0  0  0  0  0  0  0  0  0  0  0  0
   20.5912    6.3175   -0.0000 Cl  0  0  0  0  0  0  0  0  0  0  0  0
  1  2  1  0  0  0  0
  2  3  1  0  0  0  0
  2  4  2  0  0  0  0
  4  5  1  0  0  0  0
  4  6  1  0  0  0  0
  6  7  2  0  0  0  0
  6  8  1  0  0  0  0
  8  9  1  0  0  0  0
  9 10  2  0  0  0  0
  9 11  1  0  0  0  0
 10 12  1  0  0  0  0
 11 13  2  0  0  0  0
 12 14  2  0  0  0  0
 14 15  1  0  0  0  0
 15 16  2  0  0  0  0
 15 17  2  0  0  0  0
 15 18  1  0  0  0  0
 18 19  2  0  0  0  0
 18 20  1  0  0  0  0
 19 21  1  0  0  0  0
 20 22  2  0  0  0  0
 21 23  2  0  0  0  0
 23 24  1  0  0  0  0
 24 25  1  0  0  0  0
 25 26  2  0  0  0  0
 25 27  1  0  0  0  0
 27 28  1  0  0  0  0
 27 29  2  0  0  0  0
 29 30  1  0  0  0  0
 29 31  1  0  0  0  0
 13 14  1  0  0  0  0
 22 23  1  0  0  0  0
M  END
>  <MolRegNo>
356509

>  <m>
=

>  <Value>
900

>  <Unit>
nM

>  <Type>
IC50

>  <Ligand Efficiency>
0.27

>  <Binding Efficiency>
10.70

>  <Surface Efficiency>
6.97

>  <Assay Index>
266027

>  <Assay Category>


>  <Assay Organism>
SARS coronavirus

>  <Target ID>
20012

>  <Target Name>
SARS coronavirus 3C-like proteinase

>  <Target Organism>
SARS coronavirus

>  <Target Description>
Target is a single protein chain

>  <Sequence Accession>
P0C6U8

>  <Reference>
J. Med. Chem. 49 (17), 5154-5161 (2006)

>  <Pubmed ID>
16913704

>  <DOI>
10.1021/jm060207o

>  <InChI-Key>
HXYPMMAPDRFFTM-UHFFFAOYSA-N

>  <Molecular Formula>
C18H8O6Cl6S

>  <Monoisotopic Mass>
561.817272

>  <Druglikeness>
-2.9233

$$$$
Compound 240
Actelion Java MolfileCreator 1.0

  7  7  0  0  0  0  0  0  0  0999 V2000
    0.0000   -0.0000   -0.0000 O   0  0  0  0  0  0  0  0  0  0  0  0
    1.2919   -0.7467   -0.0000 C   0  0  0  0  0  0  0  0  0  0  0  0
    1.2800   -2.2400   -0.0000 C   0  0  0  0  0  0  0  0  0  0  0  0
    2.4889   -3.1171   -0.0000 O   0  0  0  0  0  0  0  0  0  0  0  0
    0.0474   -3.1171   -0.0000 C   0  0  0  0  0  0  0  0  0  0  0  0
    2.0149   -4.5393   -0.0000 C   0  0  0  0  0  0  0  0  0  0  0  0
    0.4978   -4.5393   -0.0000 C   0  0  0  0  0  0  0  0  0  0  0  0
  1  2  2  0  0  0  0
  2  3  1  0  0  0  0
  3  4  1  0  0  0  0
  3  5  2  0  0  0  0
  4  6  1  0  0  0  0
  5  7  1  0  0  0  0
  6  7  2  0  0  0  0
M  END
>  <MolRegNo>
312450

>  <m>
=

>  <Value>
23

>  <Unit>
%

>  <Type>
Inhibition

>  <Ligand Efficiency>


>  <Binding Efficiency>


>  <Surface Efficiency>


>  <Assay Index>
278390

>  <Assay Category>


>  <Assay Organism>
SARS coronavirus

>  <Target ID>
20012

>  <Target Name>
SARS coronavirus 3C-like proteinase

>  <Target Organism>
SARS coronavirus

>  <Target Description>
Target is a single protein chain

>  <Sequence Accession>
P0C6U8

>  <Reference>
J. Med. Chem. 50 (8), 1850-1864 (2007)

>  <Pubmed ID>
17381079

>  <DOI>
10.1021/jm061425k

>  <InChI-Key>
HYBBIBNJHNGZAN-UHFFFAOYSA-N

>  <Molecular Formula>
C5H4O2

>  <Monoisotopic Mass>
96.0211300

>  <Druglikeness>
-3.4104

$$$$
Compound 241
Actelion Java MolfileCreator 1.0

 24 25  0  0  0  0  0  0  0  0999 V2000
    0.0000   -0.0000   -0.0000 Cl  0  0  0  0  0  0  0  0  0  0  0  0
    1.2930   -0.7423   -0.0000 C   0  0  0  0  0  0  0  0  0  0  0  0
    2.5740    0.0239   -0.0000 C   0  0  0  0  0  0  0  0  0  0  0  0
    1.2810   -2.2388   -0.0000 C   0  0  0  0  0  0  0  0  0  0  0  0
    3.8789   -0.7063   -0.0000 C   0  0  0  0  0  0  0  0  0  0  0  0
    2.5740   -2.9810   -0.0000 C   0  0  0  0  0  0  0  0  0  0  0  0
    5.1719    0.0718   -0.0000 F   0  0  0  0  0  0  0  0  0  0  0  0
    3.8669   -2.2148   -0.0000 C   0  0  0  0  0  0  0  0  0  0  0  0
    5.1599   -2.9571   -0.0000 N   0  0  0  0  0  0  0  0  0  0  0  0
    6.4529   -2.1909   -0.0000 C   0  0  0  0  0  0  0  0  0  0  0  0
    6.4409   -0.6704   -0.0000 O   0  0  0  0  0  0  0  0  0  0  0  0
    7.7458   -2.9331   -0.0000 C   0  0  0  0  0  0  0  0  0  0  0  0
    9.0388   -2.1669   -0.0000 S   0  0  0  0  0  0  0  0  0  0  0  0
   10.3318   -2.9092   -0.0000 C   0  0  0  0  0  0  0  0  0  0  0  0
   10.3078   -4.4057   -0.0000 N   0  0  0  0  0  0  0  0  0  0  0  0
   11.6128   -2.1310   -0.0000 N   0  0  0  0  0  0  0  0  0  0  0  0
   11.6008   -5.1479   -0.0000 C   0  0  0  0  0  0  0  0  0  0  0  0
   12.9058   -2.8613   -0.0000 C   0  0  0  0  0  0  0  0  0  0  0  0
   12.8938   -4.3817   -0.0000 C   0  0  0  0  0  0  0  0  0  0  0  0
   11.5888   -6.6444   -0.0000 C   0  0  0  0  0  0  0  0  0  0  0  0
   14.1987   -2.0831   -0.0000 C   0  0  0  0  0  0  0  0  0  0  0  0
   13.0853   -6.6325   -0.0000 F   0  0  0  0  0  0  0  0  0  0  0  0
   10.0684   -6.6325   -0.0000 F   0  0  0  0  0  0  0  0  0  0  0  0
   11.5649   -8.1409   -0.0000 F   0  0  0  0  0  0  0  0  0  0  0  0
  1  2  1  0  0  0  0
  2  3  2  0  0  0  0
  2  4  1  0  0  0  0
  3  5  1  0  0  0  0
  4  6  2  0  0  0  0
  5  7  1  0  0  0  0
  5  8  2  0  0  0  0
  8  9  1  0  0  0  0
  9 10  1  0  0  0  0
 10 11  2  0  0  0  0
 10 12  1  0  0  0  0
 12 13  1  0  0  0  0
 13 14  1  0  0  0  0
 14 15  2  0  0  0  0
 14 16  1  0  0  0  0
 15 17  1  0  0  0  0
 16 18  2  0  0  0  0
 17 19  2  0  0  0  0
 17 20  1  0  0  0  0
 18 21  1  0  0  0  0
 20 22  1  0  0  0  0
 20 23  1  0  0  0  0
 20 24  1  0  0  0  0
  6  8  1  0  0  0  0
 18 19  1  0  0  0  0
M  END
>  <MolRegNo>
349432

>  <m>
=

>  <Value>
1.9953e12

>  <Unit>
nM

>  <Type>
IC50

>  <Ligand Efficiency>


>  <Binding Efficiency>


>  <Surface Efficiency>


>  <Assay Index>
262926

>  <Assay Category>


>  <Assay Organism>
SARS coronavirus

>  <Target ID>
20012

>  <Target Name>
SARS coronavirus 3C-like proteinase

>  <Target Organism>
SARS coronavirus

>  <Target Description>
Target is a single protein chain

>  <Sequence Accession>
P0C6U8

>  <Reference>
J. Med. Chem. 49 (12), 3485-3495 (2006)

>  <Pubmed ID>
16759091

>  <DOI>
10.1021/jm050852f

>  <InChI-Key>
HYEIKCOUEGKGTH-UHFFFAOYSA-N

>  <Molecular Formula>
C14H10N3OClF4S

>  <Monoisotopic Mass>
379.016921

>  <Druglikeness>
-5.7813

$$$$
Compound 242
Actelion Java MolfileCreator 1.0

 24 25  0  0  0  0  0  0  0  0999 V2000
    0.0000   -0.0000   -0.0000 Cl  0  0  0  0  0  0  0  0  0  0  0  0
    1.2930   -0.7423   -0.0000 C   0  0  0  0  0  0  0  0  0  0  0  0
    2.5740    0.0239   -0.0000 C   0  0  0  0  0  0  0  0  0  0  0  0
    1.2810   -2.2388   -0.0000 C   0  0  0  0  0  0  0  0  0  0  0  0
    3.8789   -0.7063   -0.0000 C   0  0  0  0  0  0  0  0  0  0  0  0
    2.5740   -2.9810   -0.0000 C   0  0  0  0  0  0  0  0  0  0  0  0
    5.1719    0.0718   -0.0000 F   0  0  0  0  0  0  0  0  0  0  0  0
    3.8669   -2.2148   -0.0000 C   0  0  0  0  0  0  0  0  0  0  0  0
    5.1599   -2.9571   -0.0000 N   0  0  0  0  0  0  0  0  0  0  0  0
    6.4529   -2.1909   -0.0000 C   0  0  0  0  0  0  0  0  0  0  0  0
    6.4409   -0.6704   -0.0000 O   0  0  0  0  0  0  0  0  0  0  0  0
    7.7458   -2.9331   -0.0000 C   0  0  0  0  0  0  0  0  0  0  0  0
    9.0388   -2.1669   -0.0000 S   0  0  0  0  0  0  0  0  0  0  0  0
   10.3318   -2.9092   -0.0000 C   0  0  0  0  0  0  0  0  0  0  0  0
   10.3078   -4.4057   -0.0000 N   0  0  0  0  0  0  0  0  0  0  0  0
   11.6128   -2.1310   -0.0000 N   0  0  0  0  0  0  0  0  0  0  0  0
   11.6008   -5.1479   -0.0000 C   0  0  0  0  0  0  0  0  0  0  0  0
   12.9058   -2.8613   -0.0000 C   0  0  0  0  0  0  0  0  0  0  0  0
   12.8938   -4.3817   -0.0000 C   0  0  0  0  0  0  0  0  0  0  0  0
   11.5888   -6.6444   -0.0000 C   0  0  0  0  0  0  0  0  0  0  0  0
   14.1987   -2.0831   -0.0000 C   0  0  0  0  0  0  0  0  0  0  0  0
   13.0853   -6.6325   -0.0000 F   0  0  0  0  0  0  0  0  0  0  0  0
   10.0684   -6.6325   -0.0000 F   0  0  0  0  0  0  0  0  0  0  0  0
   11.5649   -8.1409   -0.0000 F   0  0  0  0  0  0  0  0  0  0  0  0
  1  2  1  0  0  0  0
  2  3  2  0  0  0  0
  2  4  1  0  0  0  0
  3  5  1  0  0  0  0
  4  6  2  0  0  0  0
  5  7  1  0  0  0  0
  5  8  2  0  0  0  0
  8  9  1  0  0  0  0
  9 10  1  0  0  0  0
 10 11  2  0  0  0  0
 10 12  1  0  0  0  0
 12 13  1  0  0  0  0
 13 14  1  0  0  0  0
 14 15  2  0  0  0  0
 14 16  1  0  0  0  0
 15 17  1  0  0  0  0
 16 18  2  0  0  0  0
 17 19  2  0  0  0  0
 17 20  1  0  0  0  0
 18 21  1  0  0  0  0
 20 22  1  0  0  0  0
 20 23  1  0  0  0  0
 20 24  1  0  0  0  0
  6  8  1  0  0  0  0
 18 19  1  0  0  0  0
M  END
>  <MolRegNo>
349432

>  <m>
=

>  <Value>
5.0e5

>  <Unit>
nM

>  <Type>
IC50

>  <Ligand Efficiency>


>  <Binding Efficiency>


>  <Surface Efficiency>


>  <Assay Index>
262926

>  <Assay Category>


>  <Assay Organism>
SARS coronavirus

>  <Target ID>
20012

>  <Target Name>
SARS coronavirus 3C-like proteinase

>  <Target Organism>
SARS coronavirus

>  <Target Description>
Target is a single protein chain

>  <Sequence Accession>
P0C6U8

>  <Reference>
J. Med. Chem. 49 (12), 3485-3495 (2006)

>  <Pubmed ID>
16759091

>  <DOI>
10.1021/jm050852f

>  <InChI-Key>
HYEIKCOUEGKGTH-UHFFFAOYSA-N

>  <Molecular Formula>
C14H10N3OClF4S

>  <Monoisotopic Mass>
379.016921

>  <Druglikeness>
-5.7813

$$$$
Compound 243
Actelion Java MolfileCreator 1.0

 22 25  0  0  0  0  0  0  0  0999 V2000
    0.0000   -0.0000   -0.0000 O   0  0  0  0  0  0  0  0  0  0  0  0
    1.2992   -0.7271   -0.0000 C   0  0  0  0  0  0  0  0  0  0  0  0
    1.2992   -2.2171   -0.0000 C   0  0  0  0  0  0  0  0  0  0  0  0
    2.5866    0.0477   -0.0000 C   0  0  0  0  0  0  0  0  0  0  0  0
    2.5985   -2.9442   -0.0000 C   0  0  0  0  0  0  0  0  0  0  0  0
   -0.0119   -2.9561   -0.0000 C   0  0  0  0  0  0  0  0  0  0  0  0
    2.5627    1.5615   -0.0000 O   0  0  0  0  0  0  0  0  0  0  0  0
    3.8858   -0.6794   -0.0000 C   0  0  0  0  0  0  0  0  0  0  0  0
    3.8739   -2.1813   -0.0000 C   0  0  0  0  0  0  0  0  0  0  0  0
    2.5866   -4.4341   -0.0000 C   0  0  0  0  0  0  0  0  0  0  0  0
   -0.0119   -4.4580   -0.0000 C   0  0  0  0  0  0  0  0  0  0  0  0
   -1.3350   -2.2051   -0.0000 C   0  0  0  0  0  0  0  0  0  0  0  0
    5.3043   -0.2026   -0.0000 C   0  0  0  0  0  0  0  0  0  0  0  0
    5.2923   -2.6343   -0.0000 O   0  0  0  0  0  0  0  0  0  0  0  0
    1.2873   -5.1731   -0.0000 C   0  0  0  0  0  0  0  0  0  0  0  0
   -1.3231   -5.2208   -0.0000 C   0  0  0  0  0  0  0  0  0  0  0  0
   -2.6462   -2.9561   -0.0000 C   0  0  0  0  0  0  0  0  0  0  0  0
    6.1744   -1.4065   -0.0000 C   0  0  0  0  0  0  0  0  0  0  0  0
    5.7572    1.2396   -0.0000 C   0  0  0  0  0  0  0  0  0  0  0  0
   -2.6581   -4.4580   -0.0000 C   0  0  0  0  0  0  0  0  0  0  0  0
   -2.0979   -6.5082   -0.0000 C   0  0  0  0  0  0  0  0  0  0  0  0
   -0.5960   -6.5082   -0.0000 C   0  0  0  0  0  0  0  0  0  0  0  0
  1  2  2  0  0  0  0
  2  3  1  0  0  0  0
  2  4  1  0  0  0  0
  3  5  2  0  0  0  0
  3  6  1  0  0  0  0
  4  7  2  0  0  0  0
  4  8  1  0  0  0  0
  5  9  1  0  0  0  0
  5 10  1  0  0  0  0
  6 11  2  0  0  0  0
  6 12  1  0  0  0  0
  8 13  1  0  0  0  0
  9 14  1  0  0  0  0
 10 15  2  0  0  0  0
 11 16  1  0  0  0  0
 12 17  1  0  0  0  0
 13 18  2  0  0  0  0
 13 19  1  0  0  0  0
 16 20  1  0  0  0  0
 16 21  1  0  0  0  0
 16 22  1  0  0  0  0
  8  9  2  0  0  0  0
 11 15  1  0  0  0  0
 14 18  1  0  0  0  0
 17 20  1  0  0  0  0
M  END
>  <MolRegNo>
314702

>  <m>
=

>  <Value>
89100

>  <Unit>
nM

>  <Type>
IC50

>  <Ligand Efficiency>
0.25

>  <Binding Efficiency>
13.76

>  <Surface Efficiency>
8.57

>  <Assay Index>
678191

>  <Assay Category>


>  <Assay Organism>
SARS coronavirus

>  <Target ID>
20012

>  <Target Name>
SARS coronavirus 3C-like proteinase

>  <Target Organism>
SARS coronavirus

>  <Target Description>
Target is a single protein chain

>  <Sequence Accession>
P0C6U8

>  <Reference>
Bioorg. Med. Chem. 20 (19), 5928-5935 (2012)

>  <Pubmed ID>
22884354

>  <DOI>
10.1016/j.bmc.2012.07.038

>  <InChI-Key>
HYXITZLLTYIPOF-UHFFFAOYSA-N

>  <Molecular Formula>
C19H18O3

>  <Monoisotopic Mass>
294.125595

>  <Druglikeness>
-7.7862

$$$$
Compound 244
Actelion Java MolfileCreator 1.0

 22 25  0  0  0  0  0  0  0  0999 V2000
    0.0000   -0.0000   -0.0000 O   0  0  0  0  0  0  0  0  0  0  0  0
    1.2992   -0.7271   -0.0000 C   0  0  0  0  0  0  0  0  0  0  0  0
    1.2992   -2.2171   -0.0000 C   0  0  0  0  0  0  0  0  0  0  0  0
    2.5866    0.0477   -0.0000 C   0  0  0  0  0  0  0  0  0  0  0  0
    2.5985   -2.9442   -0.0000 C   0  0  0  0  0  0  0  0  0  0  0  0
   -0.0119   -2.9561   -0.0000 C   0  0  0  0  0  0  0  0  0  0  0  0
    2.5627    1.5615   -0.0000 O   0  0  0  0  0  0  0  0  0  0  0  0
    3.8858   -0.6794   -0.0000 C   0  0  0  0  0  0  0  0  0  0  0  0
    3.8739   -2.1813   -0.0000 C   0  0  0  0  0  0  0  0  0  0  0  0
    2.5866   -4.4341   -0.0000 C   0  0  0  0  0  0  0  0  0  0  0  0
   -0.0119   -4.4580   -0.0000 C   0  0  0  0  0  0  0  0  0  0  0  0
   -1.3350   -2.2051   -0.0000 C   0  0  0  0  0  0  0  0  0  0  0  0
    5.3043   -0.2026   -0.0000 C   0  0  0  0  0  0  0  0  0  0  0  0
    5.2923   -2.6343   -0.0000 O   0  0  0  0  0  0  0  0  0  0  0  0
    1.2873   -5.1731   -0.0000 C   0  0  0  0  0  0  0  0  0  0  0  0
   -1.3231   -5.2208   -0.0000 C   0  0  0  0  0  0  0  0  0  0  0  0
   -2.6462   -2.9561   -0.0000 C   0  0  0  0  0  0  0  0  0  0  0  0
    6.1744   -1.4065   -0.0000 C   0  0  0  0  0  0  0  0  0  0  0  0
    5.7572    1.2396   -0.0000 C   0  0  0  0  0  0  0  0  0  0  0  0
   -2.6581   -4.4580   -0.0000 C   0  0  0  0  0  0  0  0  0  0  0  0
   -2.0979   -6.5082   -0.0000 C   0  0  0  0  0  0  0  0  0  0  0  0
   -0.5960   -6.5082   -0.0000 C   0  0  0  0  0  0  0  0  0  0  0  0
  1  2  2  0  0  0  0
  2  3  1  0  0  0  0
  2  4  1  0  0  0  0
  3  5  2  0  0  0  0
  3  6  1  0  0  0  0
  4  7  2  0  0  0  0
  4  8  1  0  0  0  0
  5  9  1  0  0  0  0
  5 10  1  0  0  0  0
  6 11  2  0  0  0  0
  6 12  1  0  0  0  0
  8 13  1  0  0  0  0
  9 14  1  0  0  0  0
 10 15  2  0  0  0  0
 11 16  1  0  0  0  0
 12 17  1  0  0  0  0
 13 18  2  0  0  0  0
 13 19  1  0  0  0  0
 16 20  1  0  0  0  0
 16 21  1  0  0  0  0
 16 22  1  0  0  0  0
  8  9  2  0  0  0  0
 11 15  1  0  0  0  0
 14 18  1  0  0  0  0
 17 20  1  0  0  0  0
M  END
>  <MolRegNo>
314702

>  <m>
=

>  <Value>
17100

>  <Unit>
nM

>  <Type>
IC50

>  <Ligand Efficiency>
0.30

>  <Binding Efficiency>
16.20

>  <Surface Efficiency>
10.08

>  <Assay Index>
678310

>  <Assay Category>


>  <Assay Organism>
SARS coronavirus

>  <Target ID>
20012

>  <Target Name>
SARS coronavirus 3C-like proteinase

>  <Target Organism>
SARS coronavirus

>  <Target Description>
Target is a single protein chain

>  <Sequence Accession>
P0C6U8

>  <Reference>
Bioorg. Med. Chem. 20 (19), 5928-5935 (2012)

>  <Pubmed ID>
22884354

>  <DOI>
10.1016/j.bmc.2012.07.038

>  <InChI-Key>
HYXITZLLTYIPOF-UHFFFAOYSA-N

>  <Molecular Formula>
C19H18O3

>  <Monoisotopic Mass>
294.125595

>  <Druglikeness>
-7.7862

$$$$
Compound 245
Actelion Java MolfileCreator 1.0

 22 25  0  0  0  0  0  0  0  0999 V2000
    0.0000   -0.0000   -0.0000 O   0  0  0  0  0  0  0  0  0  0  0  0
    1.2992   -0.7271   -0.0000 C   0  0  0  0  0  0  0  0  0  0  0  0
    1.2992   -2.2171   -0.0000 C   0  0  0  0  0  0  0  0  0  0  0  0
    2.5866    0.0477   -0.0000 C   0  0  0  0  0  0  0  0  0  0  0  0
    2.5985   -2.9442   -0.0000 C   0  0  0  0  0  0  0  0  0  0  0  0
   -0.0119   -2.9561   -0.0000 C   0  0  0  0  0  0  0  0  0  0  0  0
    2.5627    1.5615   -0.0000 O   0  0  0  0  0  0  0  0  0  0  0  0
    3.8858   -0.6794   -0.0000 C   0  0  0  0  0  0  0  0  0  0  0  0
    3.8739   -2.1813   -0.0000 C   0  0  0  0  0  0  0  0  0  0  0  0
    2.5866   -4.4341   -0.0000 C   0  0  0  0  0  0  0  0  0  0  0  0
   -0.0119   -4.4580   -0.0000 C   0  0  0  0  0  0  0  0  0  0  0  0
   -1.3350   -2.2051   -0.0000 C   0  0  0  0  0  0  0  0  0  0  0  0
    5.3043   -0.2026   -0.0000 C   0  0  0  0  0  0  0  0  0  0  0  0
    5.2923   -2.6343   -0.0000 O   0  0  0  0  0  0  0  0  0  0  0  0
    1.2873   -5.1731   -0.0000 C   0  0  0  0  0  0  0  0  0  0  0  0
   -1.3231   -5.2208   -0.0000 C   0  0  0  0  0  0  0  0  0  0  0  0
   -2.6462   -2.9561   -0.0000 C   0  0  0  0  0  0  0  0  0  0  0  0
    6.1744   -1.4065   -0.0000 C   0  0  0  0  0  0  0  0  0  0  0  0
    5.7572    1.2396   -0.0000 C   0  0  0  0  0  0  0  0  0  0  0  0
   -2.6581   -4.4580   -0.0000 C   0  0  0  0  0  0  0  0  0  0  0  0
   -2.0979   -6.5082   -0.0000 C   0  0  0  0  0  0  0  0  0  0  0  0
   -0.5960   -6.5082   -0.0000 C   0  0  0  0  0  0  0  0  0  0  0  0
  1  2  2  0  0  0  0
  2  3  1  0  0  0  0
  2  4  1  0  0  0  0
  3  5  2  0  0  0  0
  3  6  1  0  0  0  0
  4  7  2  0  0  0  0
  4  8  1  0  0  0  0
  5  9  1  0  0  0  0
  5 10  1  0  0  0  0
  6 11  2  0  0  0  0
  6 12  1  0  0  0  0
  8 13  1  0  0  0  0
  9 14  1  0  0  0  0
 10 15  2  0  0  0  0
 11 16  1  0  0  0  0
 12 17  1  0  0  0  0
 13 18  2  0  0  0  0
 13 19  1  0  0  0  0
 16 20  1  0  0  0  0
 16 21  1  0  0  0  0
 16 22  1  0  0  0  0
  8  9  2  0  0  0  0
 11 15  1  0  0  0  0
 14 18  1  0  0  0  0
 17 20  1  0  0  0  0
M  END
>  <MolRegNo>
314702

>  <m>
=

>  <Value>
1600

>  <Unit>
nM

>  <Type>
IC50

>  <Ligand Efficiency>
0.36

>  <Binding Efficiency>
19.69

>  <Surface Efficiency>
12.26

>  <Assay Index>
678190

>  <Assay Category>


>  <Assay Organism>
SARS coronavirus

>  <Target ID>
20012

>  <Target Name>
SARS coronavirus 3C-like proteinase

>  <Target Organism>
SARS coronavirus

>  <Target Description>
Target is a single protein chain

>  <Sequence Accession>
P0C6U8

>  <Reference>
Bioorg. Med. Chem. 20 (19), 5928-5935 (2012)

>  <Pubmed ID>
22884354

>  <DOI>
10.1016/j.bmc.2012.07.038

>  <InChI-Key>
HYXITZLLTYIPOF-UHFFFAOYSA-N

>  <Molecular Formula>
C19H18O3

>  <Monoisotopic Mass>
294.125595

>  <Druglikeness>
-7.7862

$$$$
Compound 246
Actelion Java MolfileCreator 1.0

 22 25  0  0  0  0  0  0  0  0999 V2000
    0.0000   -0.0000   -0.0000 O   0  0  0  0  0  0  0  0  0  0  0  0
    1.2992   -0.7271   -0.0000 C   0  0  0  0  0  0  0  0  0  0  0  0
    1.2992   -2.2171   -0.0000 C   0  0  0  0  0  0  0  0  0  0  0  0
    2.5866    0.0477   -0.0000 C   0  0  0  0  0  0  0  0  0  0  0  0
    2.5985   -2.9442   -0.0000 C   0  0  0  0  0  0  0  0  0  0  0  0
   -0.0119   -2.9561   -0.0000 C   0  0  0  0  0  0  0  0  0  0  0  0
    2.5627    1.5615   -0.0000 O   0  0  0  0  0  0  0  0  0  0  0  0
    3.8858   -0.6794   -0.0000 C   0  0  0  0  0  0  0  0  0  0  0  0
    3.8739   -2.1813   -0.0000 C   0  0  0  0  0  0  0  0  0  0  0  0
    2.5866   -4.4341   -0.0000 C   0  0  0  0  0  0  0  0  0  0  0  0
   -0.0119   -4.4580   -0.0000 C   0  0  0  0  0  0  0  0  0  0  0  0
   -1.3350   -2.2051   -0.0000 C   0  0  0  0  0  0  0  0  0  0  0  0
    5.3043   -0.2026   -0.0000 C   0  0  0  0  0  0  0  0  0  0  0  0
    5.2923   -2.6343   -0.0000 O   0  0  0  0  0  0  0  0  0  0  0  0
    1.2873   -5.1731   -0.0000 C   0  0  0  0  0  0  0  0  0  0  0  0
   -1.3231   -5.2208   -0.0000 C   0  0  0  0  0  0  0  0  0  0  0  0
   -2.6462   -2.9561   -0.0000 C   0  0  0  0  0  0  0  0  0  0  0  0
    6.1744   -1.4065   -0.0000 C   0  0  0  0  0  0  0  0  0  0  0  0
    5.7572    1.2396   -0.0000 C   0  0  0  0  0  0  0  0  0  0  0  0
   -2.6581   -4.4580   -0.0000 C   0  0  0  0  0  0  0  0  0  0  0  0
   -2.0979   -6.5082   -0.0000 C   0  0  0  0  0  0  0  0  0  0  0  0
   -0.5960   -6.5082   -0.0000 C   0  0  0  0  0  0  0  0  0  0  0  0
  1  2  2  0  0  0  0
  2  3  1  0  0  0  0
  2  4  1  0  0  0  0
  3  5  2  0  0  0  0
  3  6  1  0  0  0  0
  4  7  2  0  0  0  0
  4  8  1  0  0  0  0
  5  9  1  0  0  0  0
  5 10  1  0  0  0  0
  6 11  2  0  0  0  0
  6 12  1  0  0  0  0
  8 13  1  0  0  0  0
  9 14  1  0  0  0  0
 10 15  2  0  0  0  0
 11 16  1  0  0  0  0
 12 17  1  0  0  0  0
 13 18  2  0  0  0  0
 13 19  1  0  0  0  0
 16 20  1  0  0  0  0
 16 21  1  0  0  0  0
 16 22  1  0  0  0  0
  8  9  2  0  0  0  0
 11 15  1  0  0  0  0
 14 18  1  0  0  0  0
 17 20  1  0  0  0  0
M  END
>  <MolRegNo>
314702

>  <m>


>  <Value>
0

>  <Unit>


>  <Type>
Inhibition

>  <Ligand Efficiency>


>  <Binding Efficiency>


>  <Surface Efficiency>


>  <Assay Index>
678194

>  <Assay Category>


>  <Assay Organism>
SARS coronavirus

>  <Target ID>
20012

>  <Target Name>
SARS coronavirus 3C-like proteinase

>  <Target Organism>
SARS coronavirus

>  <Target Description>
Target is a single protein chain

>  <Sequence Accession>
P0C6U8

>  <Reference>
Bioorg. Med. Chem. 20 (19), 5928-5935 (2012)

>  <Pubmed ID>
22884354

>  <DOI>
10.1016/j.bmc.2012.07.038

>  <InChI-Key>
HYXITZLLTYIPOF-UHFFFAOYSA-N

>  <Molecular Formula>
C19H18O3

>  <Monoisotopic Mass>
294.125595

>  <Druglikeness>
-7.7862

$$$$
Compound 247
Actelion Java MolfileCreator 1.0

 22 25  0  0  0  0  0  0  0  0999 V2000
    0.0000   -0.0000   -0.0000 O   0  0  0  0  0  0  0  0  0  0  0  0
    1.2992   -0.7271   -0.0000 C   0  0  0  0  0  0  0  0  0  0  0  0
    1.2992   -2.2171   -0.0000 C   0  0  0  0  0  0  0  0  0  0  0  0
    2.5866    0.0477   -0.0000 C   0  0  0  0  0  0  0  0  0  0  0  0
    2.5985   -2.9442   -0.0000 C   0  0  0  0  0  0  0  0  0  0  0  0
   -0.0119   -2.9561   -0.0000 C   0  0  0  0  0  0  0  0  0  0  0  0
    2.5627    1.5615   -0.0000 O   0  0  0  0  0  0  0  0  0  0  0  0
    3.8858   -0.6794   -0.0000 C   0  0  0  0  0  0  0  0  0  0  0  0
    3.8739   -2.1813   -0.0000 C   0  0  0  0  0  0  0  0  0  0  0  0
    2.5866   -4.4341   -0.0000 C   0  0  0  0  0  0  0  0  0  0  0  0
   -0.0119   -4.4580   -0.0000 C   0  0  0  0  0  0  0  0  0  0  0  0
   -1.3350   -2.2051   -0.0000 C   0  0  0  0  0  0  0  0  0  0  0  0
    5.3043   -0.2026   -0.0000 C   0  0  0  0  0  0  0  0  0  0  0  0
    5.2923   -2.6343   -0.0000 O   0  0  0  0  0  0  0  0  0  0  0  0
    1.2873   -5.1731   -0.0000 C   0  0  0  0  0  0  0  0  0  0  0  0
   -1.3231   -5.2208   -0.0000 C   0  0  0  0  0  0  0  0  0  0  0  0
   -2.6462   -2.9561   -0.0000 C   0  0  0  0  0  0  0  0  0  0  0  0
    6.1744   -1.4065   -0.0000 C   0  0  0  0  0  0  0  0  0  0  0  0
    5.7572    1.2396   -0.0000 C   0  0  0  0  0  0  0  0  0  0  0  0
   -2.6581   -4.4580   -0.0000 C   0  0  0  0  0  0  0  0  0  0  0  0
   -2.0979   -6.5082   -0.0000 C   0  0  0  0  0  0  0  0  0  0  0  0
   -0.5960   -6.5082   -0.0000 C   0  0  0  0  0  0  0  0  0  0  0  0
  1  2  2  0  0  0  0
  2  3  1  0  0  0  0
  2  4  1  0  0  0  0
  3  5  2  0  0  0  0
  3  6  1  0  0  0  0
  4  7  2  0  0  0  0
  4  8  1  0  0  0  0
  5  9  1  0  0  0  0
  5 10  1  0  0  0  0
  6 11  2  0  0  0  0
  6 12  1  0  0  0  0
  8 13  1  0  0  0  0
  9 14  1  0  0  0  0
 10 15  2  0  0  0  0
 11 16  1  0  0  0  0
 12 17  1  0  0  0  0
 13 18  2  0  0  0  0
 13 19  1  0  0  0  0
 16 20  1  0  0  0  0
 16 21  1  0  0  0  0
 16 22  1  0  0  0  0
  8  9  2  0  0  0  0
 11 15  1  0  0  0  0
 14 18  1  0  0  0  0
 17 20  1  0  0  0  0
M  END
>  <MolRegNo>
314702

>  <m>


>  <Value>
0

>  <Unit>


>  <Type>
Inhibition

>  <Ligand Efficiency>


>  <Binding Efficiency>


>  <Surface Efficiency>


>  <Assay Index>
678307

>  <Assay Category>


>  <Assay Organism>
SARS coronavirus

>  <Target ID>
20012

>  <Target Name>
SARS coronavirus 3C-like proteinase

>  <Target Organism>
SARS coronavirus

>  <Target Description>
Target is a single protein chain

>  <Sequence Accession>
P0C6U8

>  <Reference>
Bioorg. Med. Chem. 20 (19), 5928-5935 (2012)

>  <Pubmed ID>
22884354

>  <DOI>
10.1016/j.bmc.2012.07.038

>  <InChI-Key>
HYXITZLLTYIPOF-UHFFFAOYSA-N

>  <Molecular Formula>
C19H18O3

>  <Monoisotopic Mass>
294.125595

>  <Druglikeness>
-7.7862

$$$$
Compound 248
Actelion Java MolfileCreator 1.0

 22 25  0  0  0  0  0  0  0  0999 V2000
    0.0000   -0.0000   -0.0000 O   0  0  0  0  0  0  0  0  0  0  0  0
    1.2992   -0.7271   -0.0000 C   0  0  0  0  0  0  0  0  0  0  0  0
    1.2992   -2.2171   -0.0000 C   0  0  0  0  0  0  0  0  0  0  0  0
    2.5866    0.0477   -0.0000 C   0  0  0  0  0  0  0  0  0  0  0  0
    2.5985   -2.9442   -0.0000 C   0  0  0  0  0  0  0  0  0  0  0  0
   -0.0119   -2.9561   -0.0000 C   0  0  0  0  0  0  0  0  0  0  0  0
    2.5627    1.5615   -0.0000 O   0  0  0  0  0  0  0  0  0  0  0  0
    3.8858   -0.6794   -0.0000 C   0  0  0  0  0  0  0  0  0  0  0  0
    3.8739   -2.1813   -0.0000 C   0  0  0  0  0  0  0  0  0  0  0  0
    2.5866   -4.4341   -0.0000 C   0  0  0  0  0  0  0  0  0  0  0  0
   -0.0119   -4.4580   -0.0000 C   0  0  0  0  0  0  0  0  0  0  0  0
   -1.3350   -2.2051   -0.0000 C   0  0  0  0  0  0  0  0  0  0  0  0
    5.3043   -0.2026   -0.0000 C   0  0  0  0  0  0  0  0  0  0  0  0
    5.2923   -2.6343   -0.0000 O   0  0  0  0  0  0  0  0  0  0  0  0
    1.2873   -5.1731   -0.0000 C   0  0  0  0  0  0  0  0  0  0  0  0
   -1.3231   -5.2208   -0.0000 C   0  0  0  0  0  0  0  0  0  0  0  0
   -2.6462   -2.9561   -0.0000 C   0  0  0  0  0  0  0  0  0  0  0  0
    6.1744   -1.4065   -0.0000 C   0  0  0  0  0  0  0  0  0  0  0  0
    5.7572    1.2396   -0.0000 C   0  0  0  0  0  0  0  0  0  0  0  0
   -2.6581   -4.4580   -0.0000 C   0  0  0  0  0  0  0  0  0  0  0  0
   -2.0979   -6.5082   -0.0000 C   0  0  0  0  0  0  0  0  0  0  0  0
   -0.5960   -6.5082   -0.0000 C   0  0  0  0  0  0  0  0  0  0  0  0
  1  2  2  0  0  0  0
  2  3  1  0  0  0  0
  2  4  1  0  0  0  0
  3  5  2  0  0  0  0
  3  6  1  0  0  0  0
  4  7  2  0  0  0  0
  4  8  1  0  0  0  0
  5  9  1  0  0  0  0
  5 10  1  0  0  0  0
  6 11  2  0  0  0  0
  6 12  1  0  0  0  0
  8 13  1  0  0  0  0
  9 14  1  0  0  0  0
 10 15  2  0  0  0  0
 11 16  1  0  0  0  0
 12 17  1  0  0  0  0
 13 18  2  0  0  0  0
 13 19  1  0  0  0  0
 16 20  1  0  0  0  0
 16 21  1  0  0  0  0
 16 22  1  0  0  0  0
  8  9  2  0  0  0  0
 11 15  1  0  0  0  0
 14 18  1  0  0  0  0
 17 20  1  0  0  0  0
M  END
>  <MolRegNo>
314702

>  <m>


>  <Value>
0

>  <Unit>


>  <Type>
Inhibition

>  <Ligand Efficiency>


>  <Binding Efficiency>


>  <Surface Efficiency>


>  <Assay Index>
678308

>  <Assay Category>


>  <Assay Organism>
SARS coronavirus

>  <Target ID>
20012

>  <Target Name>
SARS coronavirus 3C-like proteinase

>  <Target Organism>
SARS coronavirus

>  <Target Description>
Target is a single protein chain

>  <Sequence Accession>
P0C6U8

>  <Reference>
Bioorg. Med. Chem. 20 (19), 5928-5935 (2012)

>  <Pubmed ID>
22884354

>  <DOI>
10.1016/j.bmc.2012.07.038

>  <InChI-Key>
HYXITZLLTYIPOF-UHFFFAOYSA-N

>  <Molecular Formula>
C19H18O3

>  <Monoisotopic Mass>
294.125595

>  <Druglikeness>
-7.7862

$$$$
Compound 249
Actelion Java MolfileCreator 1.0

 22 25  0  0  0  0  0  0  0  0999 V2000
    0.0000   -0.0000   -0.0000 O   0  0  0  0  0  0  0  0  0  0  0  0
    1.2992   -0.7271   -0.0000 C   0  0  0  0  0  0  0  0  0  0  0  0
    1.2992   -2.2171   -0.0000 C   0  0  0  0  0  0  0  0  0  0  0  0
    2.5866    0.0477   -0.0000 C   0  0  0  0  0  0  0  0  0  0  0  0
    2.5985   -2.9442   -0.0000 C   0  0  0  0  0  0  0  0  0  0  0  0
   -0.0119   -2.9561   -0.0000 C   0  0  0  0  0  0  0  0  0  0  0  0
    2.5627    1.5615   -0.0000 O   0  0  0  0  0  0  0  0  0  0  0  0
    3.8858   -0.6794   -0.0000 C   0  0  0  0  0  0  0  0  0  0  0  0
    3.8739   -2.1813   -0.0000 C   0  0  0  0  0  0  0  0  0  0  0  0
    2.5866   -4.4341   -0.0000 C   0  0  0  0  0  0  0  0  0  0  0  0
   -0.0119   -4.4580   -0.0000 C   0  0  0  0  0  0  0  0  0  0  0  0
   -1.3350   -2.2051   -0.0000 C   0  0  0  0  0  0  0  0  0  0  0  0
    5.3043   -0.2026   -0.0000 C   0  0  0  0  0  0  0  0  0  0  0  0
    5.2923   -2.6343   -0.0000 O   0  0  0  0  0  0  0  0  0  0  0  0
    1.2873   -5.1731   -0.0000 C   0  0  0  0  0  0  0  0  0  0  0  0
   -1.3231   -5.2208   -0.0000 C   0  0  0  0  0  0  0  0  0  0  0  0
   -2.6462   -2.9561   -0.0000 C   0  0  0  0  0  0  0  0  0  0  0  0
    6.1744   -1.4065   -0.0000 C   0  0  0  0  0  0  0  0  0  0  0  0
    5.7572    1.2396   -0.0000 C   0  0  0  0  0  0  0  0  0  0  0  0
   -2.6581   -4.4580   -0.0000 C   0  0  0  0  0  0  0  0  0  0  0  0
   -2.0979   -6.5082   -0.0000 C   0  0  0  0  0  0  0  0  0  0  0  0
   -0.5960   -6.5082   -0.0000 C   0  0  0  0  0  0  0  0  0  0  0  0
  1  2  2  0  0  0  0
  2  3  1  0  0  0  0
  2  4  1  0  0  0  0
  3  5  2  0  0  0  0
  3  6  1  0  0  0  0
  4  7  2  0  0  0  0
  4  8  1  0  0  0  0
  5  9  1  0  0  0  0
  5 10  1  0  0  0  0
  6 11  2  0  0  0  0
  6 12  1  0  0  0  0
  8 13  1  0  0  0  0
  9 14  1  0  0  0  0
 10 15  2  0  0  0  0
 11 16  1  0  0  0  0
 12 17  1  0  0  0  0
 13 18  2  0  0  0  0
 13 19  1  0  0  0  0
 16 20  1  0  0  0  0
 16 21  1  0  0  0  0
 16 22  1  0  0  0  0
  8  9  2  0  0  0  0
 11 15  1  0  0  0  0
 14 18  1  0  0  0  0
 17 20  1  0  0  0  0
M  END
>  <MolRegNo>
314702

>  <m>


>  <Value>
0

>  <Unit>


>  <Type>
Inhibition

>  <Ligand Efficiency>


>  <Binding Efficiency>


>  <Surface Efficiency>


>  <Assay Index>
678309

>  <Assay Category>


>  <Assay Organism>
SARS coronavirus

>  <Target ID>
20012

>  <Target Name>
SARS coronavirus 3C-like proteinase

>  <Target Organism>
SARS coronavirus

>  <Target Description>
Target is a single protein chain

>  <Sequence Accession>
P0C6U8

>  <Reference>
Bioorg. Med. Chem. 20 (19), 5928-5935 (2012)

>  <Pubmed ID>
22884354

>  <DOI>
10.1016/j.bmc.2012.07.038

>  <InChI-Key>
HYXITZLLTYIPOF-UHFFFAOYSA-N

>  <Molecular Formula>
C19H18O3

>  <Monoisotopic Mass>
294.125595

>  <Druglikeness>
-7.7862

$$$$
Compound 250
Actelion Java MolfileCreator 1.0

 22 25  0  0  0  0  0  0  0  0999 V2000
    0.0000   -0.0000   -0.0000 O   0  0  0  0  0  0  0  0  0  0  0  0
    1.2992   -0.7271   -0.0000 C   0  0  0  0  0  0  0  0  0  0  0  0
    1.2992   -2.2171   -0.0000 C   0  0  0  0  0  0  0  0  0  0  0  0
    2.5866    0.0477   -0.0000 C   0  0  0  0  0  0  0  0  0  0  0  0
    2.5985   -2.9442   -0.0000 C   0  0  0  0  0  0  0  0  0  0  0  0
   -0.0119   -2.9561   -0.0000 C   0  0  0  0  0  0  0  0  0  0  0  0
    2.5627    1.5615   -0.0000 O   0  0  0  0  0  0  0  0  0  0  0  0
    3.8858   -0.6794   -0.0000 C   0  0  0  0  0  0  0  0  0  0  0  0
    3.8739   -2.1813   -0.0000 C   0  0  0  0  0  0  0  0  0  0  0  0
    2.5866   -4.4341   -0.0000 C   0  0  0  0  0  0  0  0  0  0  0  0
   -0.0119   -4.4580   -0.0000 C   0  0  0  0  0  0  0  0  0  0  0  0
   -1.3350   -2.2051   -0.0000 C   0  0  0  0  0  0  0  0  0  0  0  0
    5.3043   -0.2026   -0.0000 C   0  0  0  0  0  0  0  0  0  0  0  0
    5.2923   -2.6343   -0.0000 O   0  0  0  0  0  0  0  0  0  0  0  0
    1.2873   -5.1731   -0.0000 C   0  0  0  0  0  0  0  0  0  0  0  0
   -1.3231   -5.2208   -0.0000 C   0  0  0  0  0  0  0  0  0  0  0  0
   -2.6462   -2.9561   -0.0000 C   0  0  0  0  0  0  0  0  0  0  0  0
    6.1744   -1.4065   -0.0000 C   0  0  0  0  0  0  0  0  0  0  0  0
    5.7572    1.2396   -0.0000 C   0  0  0  0  0  0  0  0  0  0  0  0
   -2.6581   -4.4580   -0.0000 C   0  0  0  0  0  0  0  0  0  0  0  0
   -2.0979   -6.5082   -0.0000 C   0  0  0  0  0  0  0  0  0  0  0  0
   -0.5960   -6.5082   -0.0000 C   0  0  0  0  0  0  0  0  0  0  0  0
  1  2  2  0  0  0  0
  2  3  1  0  0  0  0
  2  4  1  0  0  0  0
  3  5  2  0  0  0  0
  3  6  1  0  0  0  0
  4  7  2  0  0  0  0
  4  8  1  0  0  0  0
  5  9  1  0  0  0  0
  5 10  1  0  0  0  0
  6 11  2  0  0  0  0
  6 12  1  0  0  0  0
  8 13  1  0  0  0  0
  9 14  1  0  0  0  0
 10 15  2  0  0  0  0
 11 16  1  0  0  0  0
 12 17  1  0  0  0  0
 13 18  2  0  0  0  0
 13 19  1  0  0  0  0
 16 20  1  0  0  0  0
 16 21  1  0  0  0  0
 16 22  1  0  0  0  0
  8  9  2  0  0  0  0
 11 15  1  0  0  0  0
 14 18  1  0  0  0  0
 17 20  1  0  0  0  0
M  END
>  <MolRegNo>
314702

>  <m>


>  <Value>
0

>  <Unit>


>  <Type>
Inhibition

>  <Ligand Efficiency>


>  <Binding Efficiency>


>  <Surface Efficiency>


>  <Assay Index>
678312

>  <Assay Category>


>  <Assay Organism>
SARS coronavirus

>  <Target ID>
20012

>  <Target Name>
SARS coronavirus 3C-like proteinase

>  <Target Organism>
SARS coronavirus

>  <Target Description>
Target is a single protein chain

>  <Sequence Accession>
P0C6U8

>  <Reference>
Bioorg. Med. Chem. 20 (19), 5928-5935 (2012)

>  <Pubmed ID>
22884354

>  <DOI>
10.1016/j.bmc.2012.07.038

>  <InChI-Key>
HYXITZLLTYIPOF-UHFFFAOYSA-N

>  <Molecular Formula>
C19H18O3

>  <Monoisotopic Mass>
294.125595

>  <Druglikeness>
-7.7862

$$$$
Compound 251
Actelion Java MolfileCreator 1.0

 22 25  0  0  0  0  0  0  0  0999 V2000
    0.0000   -0.0000   -0.0000 O   0  0  0  0  0  0  0  0  0  0  0  0
    1.2992   -0.7271   -0.0000 C   0  0  0  0  0  0  0  0  0  0  0  0
    1.2992   -2.2171   -0.0000 C   0  0  0  0  0  0  0  0  0  0  0  0
    2.5866    0.0477   -0.0000 C   0  0  0  0  0  0  0  0  0  0  0  0
    2.5985   -2.9442   -0.0000 C   0  0  0  0  0  0  0  0  0  0  0  0
   -0.0119   -2.9561   -0.0000 C   0  0  0  0  0  0  0  0  0  0  0  0
    2.5627    1.5615   -0.0000 O   0  0  0  0  0  0  0  0  0  0  0  0
    3.8858   -0.6794   -0.0000 C   0  0  0  0  0  0  0  0  0  0  0  0
    3.8739   -2.1813   -0.0000 C   0  0  0  0  0  0  0  0  0  0  0  0
    2.5866   -4.4341   -0.0000 C   0  0  0  0  0  0  0  0  0  0  0  0
   -0.0119   -4.4580   -0.0000 C   0  0  0  0  0  0  0  0  0  0  0  0
   -1.3350   -2.2051   -0.0000 C   0  0  0  0  0  0  0  0  0  0  0  0
    5.3043   -0.2026   -0.0000 C   0  0  0  0  0  0  0  0  0  0  0  0
    5.2923   -2.6343   -0.0000 O   0  0  0  0  0  0  0  0  0  0  0  0
    1.2873   -5.1731   -0.0000 C   0  0  0  0  0  0  0  0  0  0  0  0
   -1.3231   -5.2208   -0.0000 C   0  0  0  0  0  0  0  0  0  0  0  0
   -2.6462   -2.9561   -0.0000 C   0  0  0  0  0  0  0  0  0  0  0  0
    6.1744   -1.4065   -0.0000 C   0  0  0  0  0  0  0  0  0  0  0  0
    5.7572    1.2396   -0.0000 C   0  0  0  0  0  0  0  0  0  0  0  0
   -2.6581   -4.4580   -0.0000 C   0  0  0  0  0  0  0  0  0  0  0  0
   -2.0979   -6.5082   -0.0000 C   0  0  0  0  0  0  0  0  0  0  0  0
   -0.5960   -6.5082   -0.0000 C   0  0  0  0  0  0  0  0  0  0  0  0
  1  2  2  0  0  0  0
  2  3  1  0  0  0  0
  2  4  1  0  0  0  0
  3  5  2  0  0  0  0
  3  6  1  0  0  0  0
  4  7  2  0  0  0  0
  4  8  1  0  0  0  0
  5  9  1  0  0  0  0
  5 10  1  0  0  0  0
  6 11  2  0  0  0  0
  6 12  1  0  0  0  0
  8 13  1  0  0  0  0
  9 14  1  0  0  0  0
 10 15  2  0  0  0  0
 11 16  1  0  0  0  0
 12 17  1  0  0  0  0
 13 18  2  0  0  0  0
 13 19  1  0  0  0  0
 16 20  1  0  0  0  0
 16 21  1  0  0  0  0
 16 22  1  0  0  0  0
  8  9  2  0  0  0  0
 11 15  1  0  0  0  0
 14 18  1  0  0  0  0
 17 20  1  0  0  0  0
M  END
>  <MolRegNo>
314702

>  <m>


>  <Value>
0

>  <Unit>


>  <Type>
Inhibition

>  <Ligand Efficiency>


>  <Binding Efficiency>


>  <Surface Efficiency>


>  <Assay Index>
678313

>  <Assay Category>


>  <Assay Organism>
SARS coronavirus

>  <Target ID>
20012

>  <Target Name>
SARS coronavirus 3C-like proteinase

>  <Target Organism>
SARS coronavirus

>  <Target Description>
Target is a single protein chain

>  <Sequence Accession>
P0C6U8

>  <Reference>
Bioorg. Med. Chem. 20 (19), 5928-5935 (2012)

>  <Pubmed ID>
22884354

>  <DOI>
10.1016/j.bmc.2012.07.038

>  <InChI-Key>
HYXITZLLTYIPOF-UHFFFAOYSA-N

>  <Molecular Formula>
C19H18O3

>  <Monoisotopic Mass>
294.125595

>  <Druglikeness>
-7.7862

$$$$
Compound 252
Actelion Java MolfileCreator 1.0

 22 25  0  0  0  0  0  0  0  0999 V2000
    0.0000   -0.0000   -0.0000 O   0  0  0  0  0  0  0  0  0  0  0  0
    1.2992   -0.7271   -0.0000 C   0  0  0  0  0  0  0  0  0  0  0  0
    1.2992   -2.2171   -0.0000 C   0  0  0  0  0  0  0  0  0  0  0  0
    2.5866    0.0477   -0.0000 C   0  0  0  0  0  0  0  0  0  0  0  0
    2.5985   -2.9442   -0.0000 C   0  0  0  0  0  0  0  0  0  0  0  0
   -0.0119   -2.9561   -0.0000 C   0  0  0  0  0  0  0  0  0  0  0  0
    2.5627    1.5615   -0.0000 O   0  0  0  0  0  0  0  0  0  0  0  0
    3.8858   -0.6794   -0.0000 C   0  0  0  0  0  0  0  0  0  0  0  0
    3.8739   -2.1813   -0.0000 C   0  0  0  0  0  0  0  0  0  0  0  0
    2.5866   -4.4341   -0.0000 C   0  0  0  0  0  0  0  0  0  0  0  0
   -0.0119   -4.4580   -0.0000 C   0  0  0  0  0  0  0  0  0  0  0  0
   -1.3350   -2.2051   -0.0000 C   0  0  0  0  0  0  0  0  0  0  0  0
    5.3043   -0.2026   -0.0000 C   0  0  0  0  0  0  0  0  0  0  0  0
    5.2923   -2.6343   -0.0000 O   0  0  0  0  0  0  0  0  0  0  0  0
    1.2873   -5.1731   -0.0000 C   0  0  0  0  0  0  0  0  0  0  0  0
   -1.3231   -5.2208   -0.0000 C   0  0  0  0  0  0  0  0  0  0  0  0
   -2.6462   -2.9561   -0.0000 C   0  0  0  0  0  0  0  0  0  0  0  0
    6.1744   -1.4065   -0.0000 C   0  0  0  0  0  0  0  0  0  0  0  0
    5.7572    1.2396   -0.0000 C   0  0  0  0  0  0  0  0  0  0  0  0
   -2.6581   -4.4580   -0.0000 C   0  0  0  0  0  0  0  0  0  0  0  0
   -2.0979   -6.5082   -0.0000 C   0  0  0  0  0  0  0  0  0  0  0  0
   -0.5960   -6.5082   -0.0000 C   0  0  0  0  0  0  0  0  0  0  0  0
  1  2  2  0  0  0  0
  2  3  1  0  0  0  0
  2  4  1  0  0  0  0
  3  5  2  0  0  0  0
  3  6  1  0  0  0  0
  4  7  2  0  0  0  0
  4  8  1  0  0  0  0
  5  9  1  0  0  0  0
  5 10  1  0  0  0  0
  6 11  2  0  0  0  0
  6 12  1  0  0  0  0
  8 13  1  0  0  0  0
  9 14  1  0  0  0  0
 10 15  2  0  0  0  0
 11 16  1  0  0  0  0
 12 17  1  0  0  0  0
 13 18  2  0  0  0  0
 13 19  1  0  0  0  0
 16 20  1  0  0  0  0
 16 21  1  0  0  0  0
 16 22  1  0  0  0  0
  8  9  2  0  0  0  0
 11 15  1  0  0  0  0
 14 18  1  0  0  0  0
 17 20  1  0  0  0  0
M  END
>  <MolRegNo>
314702

>  <m>


>  <Value>
0

>  <Unit>


>  <Type>
Inhibition

>  <Ligand Efficiency>


>  <Binding Efficiency>


>  <Surface Efficiency>


>  <Assay Index>
678191

>  <Assay Category>


>  <Assay Organism>
SARS coronavirus

>  <Target ID>
20012

>  <Target Name>
SARS coronavirus 3C-like proteinase

>  <Target Organism>
SARS coronavirus

>  <Target Description>
Target is a single protein chain

>  <Sequence Accession>
P0C6U8

>  <Reference>
Bioorg. Med. Chem. 20 (19), 5928-5935 (2012)

>  <Pubmed ID>
22884354

>  <DOI>
10.1016/j.bmc.2012.07.038

>  <InChI-Key>
HYXITZLLTYIPOF-UHFFFAOYSA-N

>  <Molecular Formula>
C19H18O3

>  <Monoisotopic Mass>
294.125595

>  <Druglikeness>
-7.7862

$$$$
Compound 253
Actelion Java MolfileCreator 1.0

 22 25  0  0  0  0  0  0  0  0999 V2000
    0.0000   -0.0000   -0.0000 O   0  0  0  0  0  0  0  0  0  0  0  0
    1.2992   -0.7271   -0.0000 C   0  0  0  0  0  0  0  0  0  0  0  0
    1.2992   -2.2171   -0.0000 C   0  0  0  0  0  0  0  0  0  0  0  0
    2.5866    0.0477   -0.0000 C   0  0  0  0  0  0  0  0  0  0  0  0
    2.5985   -2.9442   -0.0000 C   0  0  0  0  0  0  0  0  0  0  0  0
   -0.0119   -2.9561   -0.0000 C   0  0  0  0  0  0  0  0  0  0  0  0
    2.5627    1.5615   -0.0000 O   0  0  0  0  0  0  0  0  0  0  0  0
    3.8858   -0.6794   -0.0000 C   0  0  0  0  0  0  0  0  0  0  0  0
    3.8739   -2.1813   -0.0000 C   0  0  0  0  0  0  0  0  0  0  0  0
    2.5866   -4.4341   -0.0000 C   0  0  0  0  0  0  0  0  0  0  0  0
   -0.0119   -4.4580   -0.0000 C   0  0  0  0  0  0  0  0  0  0  0  0
   -1.3350   -2.2051   -0.0000 C   0  0  0  0  0  0  0  0  0  0  0  0
    5.3043   -0.2026   -0.0000 C   0  0  0  0  0  0  0  0  0  0  0  0
    5.2923   -2.6343   -0.0000 O   0  0  0  0  0  0  0  0  0  0  0  0
    1.2873   -5.1731   -0.0000 C   0  0  0  0  0  0  0  0  0  0  0  0
   -1.3231   -5.2208   -0.0000 C   0  0  0  0  0  0  0  0  0  0  0  0
   -2.6462   -2.9561   -0.0000 C   0  0  0  0  0  0  0  0  0  0  0  0
    6.1744   -1.4065   -0.0000 C   0  0  0  0  0  0  0  0  0  0  0  0
    5.7572    1.2396   -0.0000 C   0  0  0  0  0  0  0  0  0  0  0  0
   -2.6581   -4.4580   -0.0000 C   0  0  0  0  0  0  0  0  0  0  0  0
   -2.0979   -6.5082   -0.0000 C   0  0  0  0  0  0  0  0  0  0  0  0
   -0.5960   -6.5082   -0.0000 C   0  0  0  0  0  0  0  0  0  0  0  0
  1  2  2  0  0  0  0
  2  3  1  0  0  0  0
  2  4  1  0  0  0  0
  3  5  2  0  0  0  0
  3  6  1  0  0  0  0
  4  7  2  0  0  0  0
  4  8  1  0  0  0  0
  5  9  1  0  0  0  0
  5 10  1  0  0  0  0
  6 11  2  0  0  0  0
  6 12  1  0  0  0  0
  8 13  1  0  0  0  0
  9 14  1  0  0  0  0
 10 15  2  0  0  0  0
 11 16  1  0  0  0  0
 12 17  1  0  0  0  0
 13 18  2  0  0  0  0
 13 19  1  0  0  0  0
 16 20  1  0  0  0  0
 16 21  1  0  0  0  0
 16 22  1  0  0  0  0
  8  9  2  0  0  0  0
 11 15  1  0  0  0  0
 14 18  1  0  0  0  0
 17 20  1  0  0  0  0
M  END
>  <MolRegNo>
314702

>  <m>
=

>  <Value>
11200

>  <Unit>
nM

>  <Type>
Ki

>  <Ligand Efficiency>
0.31

>  <Binding Efficiency>
16.82

>  <Surface Efficiency>
10.47

>  <Assay Index>
678192

>  <Assay Category>


>  <Assay Organism>
SARS coronavirus

>  <Target ID>
20012

>  <Target Name>
SARS coronavirus 3C-like proteinase

>  <Target Organism>
SARS coronavirus

>  <Target Description>
Target is a single protein chain

>  <Sequence Accession>
P0C6U8

>  <Reference>
Bioorg. Med. Chem. 20 (19), 5928-5935 (2012)

>  <Pubmed ID>
22884354

>  <DOI>
10.1016/j.bmc.2012.07.038

>  <InChI-Key>
HYXITZLLTYIPOF-UHFFFAOYSA-N

>  <Molecular Formula>
C19H18O3

>  <Monoisotopic Mass>
294.125595

>  <Druglikeness>
-7.7862

$$$$
Compound 254
Actelion Java MolfileCreator 1.0

 18 19  0  0  1  0  0  0  0  0999 V2000
    0.0000   -0.0000   -0.0000 O   0  0  0  0  0  0  0  0  0  0  0  0
   -1.5147    0.1183   -0.0000 C   0  0  0  0  0  0  0  0  0  0  0  0
   -2.1892    1.4792   -0.0000 N   0  0  0  0  0  0  0  0  0  0  0  0
   -2.3667   -1.1123   -0.0000 C   0  0  0  0  0  0  0  0  0  0  0  0
   -3.8814   -1.1478   -0.0000 N   0  0  0  0  0  0  0  0  0  0  0  0
   -1.8578   -2.5087   -0.0000 C   0  0  0  0  0  0  0  0  0  0  0  0
   -4.3074   -2.5915   -0.0000 C   0  0  0  0  0  0  0  0  0  0  0  0
   -0.4260   -2.9110   -0.0000 O   0  0  0  0  0  0  0  0  0  0  0  0
   -3.0530   -3.4198   -0.0000 N   0  0  0  0  0  0  0  0  0  0  0  0
   -3.0057   -4.9109   -0.0000 C   0  0  0  0  0  0  0  0  0  0  0  0
   -1.7632   -5.7392   -0.0000 O   0  0  0  0  0  0  0  0  0  0  0  0
   -4.2009   -5.8220   -0.0000 C   0  0  0  0  0  0  0  0  0  0  0  0
   -2.1892   -7.1710   -0.0000 C   0  0  0  0  0  0  0  0  0  0  0  0
   -5.6564   -5.3960   -0.0000 O   0  0  0  0  0  0  0  0  0  0  0  0
   -3.6920   -7.2184   -0.0000 C   0  0  0  0  0  0  0  0  0  0  0  0
   -1.2780   -8.3425   -0.0000 C   0  0  0  0  0  0  0  0  0  0  0  0
   -4.5440   -8.4490   -0.0000 O   0  0  0  0  0  0  0  0  0  0  0  0
    0.2012   -8.1177   -0.0000 O   0  0  0  0  0  0  0  0  0  0  0  0
  1  2  2  0  0  0  0
  2  3  1  0  0  0  0
  2  4  1  0  0  0  0
  4  5  1  0  0  0  0
  4  6  2  0  0  0  0
  5  7  2  0  0  0  0
  6  8  1  0  0  0  0
  6  9  1  0  0  0  0
 10  9  1  6  0  0  0
 10 11  1  0  0  0  0
 10 12  1  0  0  0  0
 11 13  1  0  0  0  0
 12 14  1  1  0  0  0
 12 15  1  0  0  0  0
 13 16  1  6  0  0  0
 15 17  1  1  0  0  0
 16 18  1  0  0  0  0
  7  9  1  0  0  0  0
 13 15  1  0  0  0  0
M  END
>  <MolRegNo>
386756

>  <m>
=

>  <Value>
13500

>  <Unit>
nM

>  <Type>
IC50

>  <Ligand Efficiency>


>  <Binding Efficiency>


>  <Surface Efficiency>


>  <Assay Index>
287336

>  <Assay Category>


>  <Assay Organism>
SARS coronavirus

>  <Target ID>
100499

>  <Target Name>
SARS coronavirus

>  <Target Organism>
SARS coronavirus

>  <Target Description>
Target is a complete organism

>  <Sequence Accession>


>  <Reference>
Bioorg. Med. Chem. Lett. 17 (9), 2470-2473 (2007)

>  <Pubmed ID>
17336519

>  <DOI>
10.1016/j.bmcl.2007.02.026

>  <InChI-Key>
HZQDCMWJEBCWBR-BZKDHIKHSA-N

>  <Molecular Formula>
C9H13N3O6

>  <Monoisotopic Mass>
259.080437

>  <Druglikeness>
0.98107

$$$$
Compound 255
Actelion Java MolfileCreator 1.0

 21 23  0  0  0  0  0  0  0  0999 V2000
    0.0000   -0.0000   -0.0000 Cl  0  0  0  0  0  0  0  0  0  0  0  0
    1.2822   -0.7361   -0.0000 C   0  0  0  0  0  0  0  0  0  0  0  0
    2.5644    0.0237   -0.0000 C   0  0  0  0  0  0  0  0  0  0  0  0
    1.2703   -2.2201   -0.0000 C   0  0  0  0  0  0  0  0  0  0  0  0
    3.8466   -0.7123   -0.0000 C   0  0  0  0  0  0  0  0  0  0  0  0
    2.5525    1.5315   -0.0000 C   0  0  0  0  0  0  0  0  0  0  0  0
    2.5525   -2.9562   -0.0000 C   0  0  0  0  0  0  0  0  0  0  0  0
    5.1288    0.0475   -0.0000 Cl  0  0  0  0  0  0  0  0  0  0  0  0
    3.8347   -2.2082   -0.0000 C   0  0  0  0  0  0  0  0  0  0  0  0
    3.7397    2.4219   -0.0000 S   0  0  0  0  0  0  0  0  0  0  0  0
    1.3178    2.4101   -0.0000 N   0  0  0  0  0  0  0  0  0  0  0  0
    3.2649    3.8585   -0.0000 C   0  0  0  0  0  0  0  0  0  0  0  0
    1.7690    3.8466   -0.0000 C   0  0  0  0  0  0  0  0  0  0  0  0
   -0.2018    2.4219   -0.0000 C   0  0  0  0  0  0  0  0  0  0  0  0
    4.1315    5.0813   -0.0000 C   0  0  0  0  0  0  0  0  0  0  0  0
    0.8785    5.0694   -0.0000 O   0  0  0  0  0  0  0  0  0  0  0  0
   -1.0685    3.6566   -0.0000 C   0  0  0  0  0  0  0  0  0  0  0  0
   -0.5936    5.0813   -0.0000 O   0  0  0  0  0  0  0  0  0  0  0  0
   -2.5881    3.6923   -0.0000 C   0  0  0  0  0  0  0  0  0  0  0  0
   -1.8046    5.9955   -0.0000 C   0  0  0  0  0  0  0  0  0  0  0  0
   -3.0393    5.1407   -0.0000 C   0  0  0  0  0  0  0  0  0  0  0  0
  1  2  1  0  0  0  0
  2  3  2  0  0  0  0
  2  4  1  0  0  0  0
  3  5  1  0  0  0  0
  3  6  1  0  0  0  0
  4  7  2  0  0  0  0
  5  8  1  0  0  0  0
  5  9  2  0  0  0  0
  6 10  1  0  0  0  0
  6 11  1  0  0  0  0
 10 12  1  0  0  0  0
 11 13  1  0  0  0  0
 11 14  1  0  0  0  0
 12 15  1  0  0  0  0
 13 16  2  0  0  0  0
 14 17  1  0  0  0  0
 17 18  1  0  0  0  0
 17 19  2  0  0  0  0
 18 20  1  0  0  0  0
 19 21  1  0  0  0  0
  7  9  1  0  0  0  0
 12 13  1  0  0  0  0
 20 21  2  0  0  0  0
M  END
>  <MolRegNo>
453069

>  <m>
<=

>  <Value>
50

>  <Unit>
%

>  <Type>
Inhibition

>  <Ligand Efficiency>


>  <Binding Efficiency>


>  <Surface Efficiency>


>  <Assay Index>
406904

>  <Assay Category>


>  <Assay Organism>
SARS coronavirus

>  <Target ID>
101075

>  <Target Name>
Replicase polyprotein 1ab

>  <Target Organism>
SARS coronavirus

>  <Target Description>
Target is a single protein chain

>  <Sequence Accession>
P0C6X7

>  <Reference>
Bioorg. Med. Chem. Lett. 18 (23), 6110-6114 (2008)

>  <Pubmed ID>
18947995

>  <DOI>
10.1016/j.bmcl.2008.10.023

>  <InChI-Key>
IASDIJPYOACFTH-UHFFFAOYSA-N

>  <Molecular Formula>
C15H13NO2Cl2S

>  <Monoisotopic Mass>
341.004403

>  <Druglikeness>
4.959

$$$$
Compound 256
Actelion Java MolfileCreator 1.0

 22 24  0  0  0  0  0  0  0  0999 V2000
    0.0000   -0.0000   -0.0000 S   0  0  0  0  0  0  0  0  0  0  0  0
   -1.3056   -0.8113   -0.0000 C   0  0  0  0  0  0  0  0  0  0  0  0
   -0.5070    1.3437   -0.0000 C   0  0  0  0  0  0  0  0  0  0  0  0
   -2.6239    0.0127   -0.0000 N   0  0  0  0  0  0  0  0  0  0  0  0
   -1.3183   -2.1930   -0.0000 C   0  0  0  0  0  0  0  0  0  0  0  0
   -2.1296    1.3563   -0.0000 C   0  0  0  0  0  0  0  0  0  0  0  0
   -4.1704   -0.4183   -0.0000 C   0  0  0  0  0  0  0  0  0  0  0  0
   -2.7253   -2.8775   -0.0000 C   0  0  0  0  0  0  0  0  0  0  0  0
    0.0634   -2.8775   -0.0000 C   0  0  0  0  0  0  0  0  0  0  0  0
   -3.0930    2.4972   -0.0000 O   0  0  0  0  0  0  0  0  0  0  0  0
   -4.4873   -1.7746   -0.0000 N   0  0  0  0  0  0  0  0  0  0  0  0
   -5.3746    0.5197   -0.0000 C   0  0  0  0  0  0  0  0  0  0  0  0
   -2.7380   -4.2718   -0.0000 C   0  0  0  0  0  0  0  0  0  0  0  0
    0.0507   -4.2718   -0.0000 C   0  0  0  0  0  0  0  0  0  0  0  0
   -6.0211   -2.2056   -0.0000 C   0  0  0  0  0  0  0  0  0  0  0  0
   -6.9084    0.0887   -0.0000 C   0  0  0  0  0  0  0  0  0  0  0  0
   -1.3563   -4.9563   -0.0000 C   0  0  0  0  0  0  0  0  0  0  0  0
   -7.2507   -1.2676   -0.0000 C   0  0  0  0  0  0  0  0  0  0  0  0
   -6.3507   -3.5620   -0.0000 C   0  0  0  0  0  0  0  0  0  0  0  0
   -1.3690   -6.3380   -0.0000 N   0  0  0  0  0  0  0  0  0  0  0  0
   -2.7761   -7.0225   -0.0000 C   0  0  0  0  0  0  0  0  0  0  0  0
    0.0127   -7.0225   -0.0000 C   0  0  0  0  0  0  0  0  0  0  0  0
  1  2  1  0  0  0  0
  1  3  1  0  0  0  0
  2  4  1  0  0  0  0
  2  5  1  0  0  0  0
  3  6  1  0  0  0  0
  4  7  1  0  0  0  0
  5  8  2  0  0  0  0
  5  9  1  0  0  0  0
  6 10  2  0  0  0  0
  7 11  2  0  0  0  0
  7 12  1  0  0  0  0
  8 13  1  0  0  0  0
  9 14  2  0  0  0  0
 11 15  1  0  0  0  0
 12 16  2  0  0  0  0
 13 17  2  0  0  0  0
 15 18  2  0  0  0  0
 15 19  1  0  0  0  0
 17 20  1  0  0  0  0
 20 21  1  0  0  0  0
 20 22  1  0  0  0  0
  4  6  1  0  0  0  0
 14 17  1  0  0  0  0
 16 18  1  0  0  0  0
M  END
>  <MolRegNo>
452855

>  <m>
<=

>  <Value>
50

>  <Unit>
%

>  <Type>
Inhibition

>  <Ligand Efficiency>


>  <Binding Efficiency>


>  <Surface Efficiency>


>  <Assay Index>
406904

>  <Assay Category>


>  <Assay Organism>
SARS coronavirus

>  <Target ID>
101075

>  <Target Name>
Replicase polyprotein 1ab

>  <Target Organism>
SARS coronavirus

>  <Target Description>
Target is a single protein chain

>  <Sequence Accession>
P0C6X7

>  <Reference>
Bioorg. Med. Chem. Lett. 18 (23), 6110-6114 (2008)

>  <Pubmed ID>
18947995

>  <DOI>
10.1016/j.bmcl.2008.10.023

>  <InChI-Key>
ICPKWHMLZNJYKV-UHFFFAOYSA-N

>  <Molecular Formula>
C17H19N3OS

>  <Monoisotopic Mass>
313.124882

>  <Druglikeness>
3.5827

$$$$
Compound 257
Actelion Java MolfileCreator 1.0

 33 35  0  0  0  0  0  0  0  0999 V2000
    0.0000   -0.0000   -0.0000 S   0  0  0  0  0  0  0  0  0  0  0  0
    1.2862   -0.7384   -0.0000 C   0  0  0  0  0  0  0  0  0  0  0  0
   -1.3100   -0.7384   -0.0000 C   0  0  0  0  0  0  0  0  0  0  0  0
    1.2624   -2.2270   -0.0000 N   0  0  0  0  0  0  0  0  0  0  0  0
    2.5605    0.0357   -0.0000 N   0  0  0  0  0  0  0  0  0  0  0  0
   -2.6200    0.0238   -0.0000 C   0  0  0  0  0  0  0  0  0  0  0  0
   -1.3219   -2.2270   -0.0000 C   0  0  0  0  0  0  0  0  0  0  0  0
    2.5486   -2.9654   -0.0000 C   0  0  0  0  0  0  0  0  0  0  0  0
    3.8466   -0.6907   -0.0000 C   0  0  0  0  0  0  0  0  0  0  0  0
   -2.6319    1.5363   -0.0000 O   0  0  0  0  0  0  0  0  0  0  0  0
   -3.9300   -0.7145   -0.0000 N   0  0  0  0  0  0  0  0  0  0  0  0
   -2.6319   -2.9654   -0.0000 C   0  0  0  0  0  0  0  0  0  0  0  0
    2.5366   -4.4540   -0.0000 O   0  0  0  0  0  0  0  0  0  0  0  0
    3.8347   -2.2032   -0.0000 C   0  0  0  0  0  0  0  0  0  0  0  0
    5.1328    0.0834   -0.0000 C   0  0  0  0  0  0  0  0  0  0  0  0
   -5.2400    0.0476   -0.0000 C   0  0  0  0  0  0  0  0  0  0  0  0
    5.1209   -2.9416   -0.0000 C   0  0  0  0  0  0  0  0  0  0  0  0
    6.4190   -0.6550   -0.0000 C   0  0  0  0  0  0  0  0  0  0  0  0
    5.1090    1.5839   -0.0000 C   0  0  0  0  0  0  0  0  0  0  0  0
   -6.5619   -0.6907   -0.0000 C   0  0  0  0  0  0  0  0  0  0  0  0
   -5.2519    1.5720   -0.0000 C   0  0  0  0  0  0  0  0  0  0  0  0
    6.3952   -3.6799   -0.0000 N   0  0  0  0  0  0  0  0  0  0  0  0
    7.7052    0.1072   -0.0000 C   0  0  0  0  0  0  0  0  0  0  0  0
    6.3833    2.3580   -0.0000 C   0  0  0  0  0  0  0  0  0  0  0  0
   -7.8719    0.0715   -0.0000 C   0  0  0  0  0  0  0  0  0  0  0  0
   -6.5738    2.3223   -0.0000 C   0  0  0  0  0  0  0  0  0  0  0  0
    8.9914   -0.6312   -0.0000 O   0  0  0  0  0  0  0  0  0  0  0  0
    7.6933    1.6196   -0.0000 C   0  0  0  0  0  0  0  0  0  0  0  0
   -7.8838    1.5839   -0.0000 C   0  0  0  0  0  0  0  0  0  0  0  0
    8.9914   -2.1198   -0.0000 C   0  0  0  0  0  0  0  0  0  0  0  0
   -9.1938    2.3461   -0.0000 C   0  0  0  0  0  0  0  0  0  0  0  0
   -9.2057    3.8586   -0.0000 O   0  0  0  0  0  0  0  0  0  0  0  0
  -10.5038    1.6077   -0.0000 C   0  0  0  0  0  0  0  0  0  0  0  0
  1  2  1  0  0  0  0
  1  3  1  0  0  0  0
  2  4  2  0  0  0  0
  2  5  1  0  0  0  0
  3  6  1  0  0  0  0
  3  7  1  0  0  0  0
  4  8  1  0  0  0  0
  5  9  2  0  0  0  0
  6 10  2  0  0  0  0
  6 11  1  0  0  0  0
  7 12  1  0  0  0  0
  8 13  1  0  0  0  0
  8 14  2  0  0  0  0
  9 15  1  0  0  0  0
 11 16  1  0  0  0  0
 14 17  1  0  0  0  0
 15 18  2  0  0  0  0
 15 19  1  0  0  0  0
 16 20  2  0  0  0  0
 16 21  1  0  0  0  0
 17 22  3  0  0  0  0
 18 23  1  0  0  0  0
 19 24  2  0  0  0  0
 20 25  1  0  0  0  0
 21 26  2  0  0  0  0
 23 27  1  0  0  0  0
 23 28  2  0  0  0  0
 25 29  2  0  0  0  0
 27 30  1  0  0  0  0
 29 31  1  0  0  0  0
 31 32  2  0  0  0  0
 31 33  1  0  0  0  0
  9 14  1  0  0  0  0
 24 28  1  0  0  0  0
 26 29  1  0  0  0  0
M  END
>  <MolRegNo>
349300

>  <m>
=

>  <Value>
1.6596e13

>  <Unit>
nM

>  <Type>
IC50

>  <Ligand Efficiency>


>  <Binding Efficiency>


>  <Surface Efficiency>


>  <Assay Index>
262926

>  <Assay Category>


>  <Assay Organism>
SARS coronavirus

>  <Target ID>
20012

>  <Target Name>
SARS coronavirus 3C-like proteinase

>  <Target Organism>
SARS coronavirus

>  <Target Description>
Target is a single protein chain

>  <Sequence Accession>
P0C6U8

>  <Reference>
J. Med. Chem. 49 (12), 3485-3495 (2006)

>  <Pubmed ID>
16759091

>  <DOI>
10.1021/jm050852f

>  <InChI-Key>
IMKQISNVNXIKPN-UHFFFAOYSA-N

>  <Molecular Formula>
C24H22N4O4S

>  <Monoisotopic Mass>
462.136176

>  <Druglikeness>
0.28833

$$$$
Compound 258
Actelion Java MolfileCreator 1.0

 33 35  0  0  0  0  0  0  0  0999 V2000
    0.0000   -0.0000   -0.0000 S   0  0  0  0  0  0  0  0  0  0  0  0
    1.2862   -0.7384   -0.0000 C   0  0  0  0  0  0  0  0  0  0  0  0
   -1.3100   -0.7384   -0.0000 C   0  0  0  0  0  0  0  0  0  0  0  0
    1.2624   -2.2270   -0.0000 N   0  0  0  0  0  0  0  0  0  0  0  0
    2.5605    0.0357   -0.0000 N   0  0  0  0  0  0  0  0  0  0  0  0
   -2.6200    0.0238   -0.0000 C   0  0  0  0  0  0  0  0  0  0  0  0
   -1.3219   -2.2270   -0.0000 C   0  0  0  0  0  0  0  0  0  0  0  0
    2.5486   -2.9654   -0.0000 C   0  0  0  0  0  0  0  0  0  0  0  0
    3.8466   -0.6907   -0.0000 C   0  0  0  0  0  0  0  0  0  0  0  0
   -2.6319    1.5363   -0.0000 O   0  0  0  0  0  0  0  0  0  0  0  0
   -3.9300   -0.7145   -0.0000 N   0  0  0  0  0  0  0  0  0  0  0  0
   -2.6319   -2.9654   -0.0000 C   0  0  0  0  0  0  0  0  0  0  0  0
    2.5366   -4.4540   -0.0000 O   0  0  0  0  0  0  0  0  0  0  0  0
    3.8347   -2.2032   -0.0000 C   0  0  0  0  0  0  0  0  0  0  0  0
    5.1328    0.0834   -0.0000 C   0  0  0  0  0  0  0  0  0  0  0  0
   -5.2400    0.0476   -0.0000 C   0  0  0  0  0  0  0  0  0  0  0  0
    5.1209   -2.9416   -0.0000 C   0  0  0  0  0  0  0  0  0  0  0  0
    6.4190   -0.6550   -0.0000 C   0  0  0  0  0  0  0  0  0  0  0  0
    5.1090    1.5839   -0.0000 C   0  0  0  0  0  0  0  0  0  0  0  0
   -6.5619   -0.6907   -0.0000 C   0  0  0  0  0  0  0  0  0  0  0  0
   -5.2519    1.5720   -0.0000 C   0  0  0  0  0  0  0  0  0  0  0  0
    6.3952   -3.6799   -0.0000 N   0  0  0  0  0  0  0  0  0  0  0  0
    7.7052    0.1072   -0.0000 C   0  0  0  0  0  0  0  0  0  0  0  0
    6.3833    2.3580   -0.0000 C   0  0  0  0  0  0  0  0  0  0  0  0
   -7.8719    0.0715   -0.0000 C   0  0  0  0  0  0  0  0  0  0  0  0
   -6.5738    2.3223   -0.0000 C   0  0  0  0  0  0  0  0  0  0  0  0
    8.9914   -0.6312   -0.0000 O   0  0  0  0  0  0  0  0  0  0  0  0
    7.6933    1.6196   -0.0000 C   0  0  0  0  0  0  0  0  0  0  0  0
   -7.8838    1.5839   -0.0000 C   0  0  0  0  0  0  0  0  0  0  0  0
    8.9914   -2.1198   -0.0000 C   0  0  0  0  0  0  0  0  0  0  0  0
   -9.1938    2.3461   -0.0000 C   0  0  0  0  0  0  0  0  0  0  0  0
   -9.2057    3.8586   -0.0000 O   0  0  0  0  0  0  0  0  0  0  0  0
  -10.5038    1.6077   -0.0000 C   0  0  0  0  0  0  0  0  0  0  0  0
  1  2  1  0  0  0  0
  1  3  1  0  0  0  0
  2  4  2  0  0  0  0
  2  5  1  0  0  0  0
  3  6  1  0  0  0  0
  3  7  1  0  0  0  0
  4  8  1  0  0  0  0
  5  9  2  0  0  0  0
  6 10  2  0  0  0  0
  6 11  1  0  0  0  0
  7 12  1  0  0  0  0
  8 13  1  0  0  0  0
  8 14  2  0  0  0  0
  9 15  1  0  0  0  0
 11 16  1  0  0  0  0
 14 17  1  0  0  0  0
 15 18  2  0  0  0  0
 15 19  1  0  0  0  0
 16 20  2  0  0  0  0
 16 21  1  0  0  0  0
 17 22  3  0  0  0  0
 18 23  1  0  0  0  0
 19 24  2  0  0  0  0
 20 25  1  0  0  0  0
 21 26  2  0  0  0  0
 23 27  1  0  0  0  0
 23 28  2  0  0  0  0
 25 29  2  0  0  0  0
 27 30  1  0  0  0  0
 29 31  1  0  0  0  0
 31 32  2  0  0  0  0
 31 33  1  0  0  0  0
  9 14  1  0  0  0  0
 24 28  1  0  0  0  0
 26 29  1  0  0  0  0
M  END
>  <MolRegNo>
349300

>  <m>
=

>  <Value>
60000

>  <Unit>
nM

>  <Type>
IC50

>  <Ligand Efficiency>
0.17

>  <Binding Efficiency>
9.13

>  <Surface Efficiency>
3.37

>  <Assay Index>
262926

>  <Assay Category>


>  <Assay Organism>
SARS coronavirus

>  <Target ID>
20012

>  <Target Name>
SARS coronavirus 3C-like proteinase

>  <Target Organism>
SARS coronavirus

>  <Target Description>
Target is a single protein chain

>  <Sequence Accession>
P0C6U8

>  <Reference>
J. Med. Chem. 49 (12), 3485-3495 (2006)

>  <Pubmed ID>
16759091

>  <DOI>
10.1021/jm050852f

>  <InChI-Key>
IMKQISNVNXIKPN-UHFFFAOYSA-N

>  <Molecular Formula>
C24H22N4O4S

>  <Monoisotopic Mass>
462.136176

>  <Druglikeness>
0.28833

$$$$
Compound 259
Actelion Java MolfileCreator 1.0

 28 29  0  0  0  0  0  0  0  0999 V2000
    0.0000   -0.0000   -0.0000 Cl  0  0  0  0  0  0  0  0  0  0  0  0
   -1.3101    0.7554   -0.0000 C   0  0  0  0  0  0  0  0  0  0  0  0
   -2.6203    0.0236   -0.0000 C   0  0  0  0  0  0  0  0  0  0  0  0
   -1.3219    2.2662   -0.0000 C   0  0  0  0  0  0  0  0  0  0  0  0
   -2.6321   -1.4636   -0.0000 S   0  0  0  0  0  0  0  0  0  0  0  0
   -3.9304    0.7790   -0.0000 C   0  0  0  0  0  0  0  0  0  0  0  0
   -2.6321    3.0334   -0.0000 C   0  0  0  0  0  0  0  0  0  0  0  0
   -1.1449   -1.4518   -0.0000 O   0  0  0  0  0  0  0  0  0  0  0  0
   -4.1429   -1.4518   -0.0000 O   0  0  0  0  0  0  0  0  0  0  0  0
   -2.6439   -2.9508   -0.0000 C   0  0  0  0  0  0  0  0  0  0  0  0
   -3.9422    2.2898   -0.0000 C   0  0  0  0  0  0  0  0  0  0  0  0
   -2.6439    4.5442   -0.0000 Cl  0  0  0  0  0  0  0  0  0  0  0  0
   -1.3573   -3.6825   -0.0000 C   0  0  0  0  0  0  0  0  0  0  0  0
   -3.9540   -3.6825   -0.0000 C   0  0  0  0  0  0  0  0  0  0  0  0
   -5.2523    3.0570   -0.0000 C   0  0  0  0  0  0  0  0  0  0  0  0
   -0.0708   -2.9272   -0.0000 N   0  0  0  0  0  0  0  0  0  0  0  0
   -1.3692   -5.1697   -0.0000 C   0  0  0  0  0  0  0  0  0  0  0  0
   -5.2642   -2.9272   -0.0000 N   0  0  0  0  0  0  0  0  0  0  0  0
   -3.9658   -5.1697   -0.0000 C   0  0  0  0  0  0  0  0  0  0  0  0
   -0.0826   -1.4164   -0.0000 O   0  0  0  0  0  0  0  0  0  0  0  0
    1.2157   -3.6589   -0.0000 O   0  0  0  0  0  0  0  0  0  0  0  0
   -2.6793   -5.9133   -0.0000 C   0  0  0  0  0  0  0  0  0  0  0  0
   -5.2760   -1.4164   -0.0000 O   0  0  0  0  0  0  0  0  0  0  0  0
   -6.5743   -3.6589   -0.0000 O   0  0  0  0  0  0  0  0  0  0  0  0
   -2.6911   -7.4005   -0.0000 C   0  0  0  0  0  0  0  0  0  0  0  0
   -2.7029   -8.8877   -0.0000 F   0  0  0  0  0  0  0  0  0  0  0  0
   -1.2039   -7.3887   -0.0000 F   0  0  0  0  0  0  0  0  0  0  0  0
   -4.2019   -7.3887   -0.0000 F   0  0  0  0  0  0  0  0  0  0  0  0
  1  2  1  0  0  0  0
  2  3  2  0  0  0  0
  2  4  1  0  0  0  0
  3  5  1  0  0  0  0
  3  6  1  0  0  0  0
  4  7  2  0  0  0  0
  5  8  2  0  0  0  0
  5  9  2  0  0  0  0
  5 10  1  0  0  0  0
  6 11  2  0  0  0  0
  7 12  1  0  0  0  0
 10 13  2  0  0  0  0
 10 14  1  0  0  0  0
 11 15  1  0  0  0  0
 13 16  1  0  0  0  0
 13 17  1  0  0  0  0
 14 18  1  0  0  0  0
 14 19  2  0  0  0  0
 16 20  2  0  0  0  0
 16 21  1  0  0  0  0
 17 22  2  0  0  0  0
 18 23  2  0  0  0  0
 18 24  1  0  0  0  0
 22 25  1  0  0  0  0
 25 26  1  0  0  0  0
 25 27  1  0  0  0  0
 25 28  1  0  0  0  0
  7 11  1  0  0  0  0
 19 22  1  0  0  0  0
M  CHG  4  16   1  18   1  21  -1  24  -1
M  END
>  <MolRegNo>
351850

>  <m>
=

>  <Value>
300

>  <Unit>
nM

>  <Type>
IC50

>  <Ligand Efficiency>
0.32

>  <Binding Efficiency>
14.21

>  <Surface Efficiency>
5.42

>  <Assay Index>
266027

>  <Assay Category>


>  <Assay Organism>
SARS coronavirus

>  <Target ID>
20012

>  <Target Name>
SARS coronavirus 3C-like proteinase

>  <Target Organism>
SARS coronavirus

>  <Target Description>
Target is a single protein chain

>  <Sequence Accession>
P0C6U8

>  <Reference>
J. Med. Chem. 49 (17), 5154-5161 (2006)

>  <Pubmed ID>
16913704

>  <DOI>
10.1021/jm060207o

>  <InChI-Key>
INAZPZCJNPPHGV-UHFFFAOYSA-N

>  <Molecular Formula>
C14H7N2O6Cl2F3S

>  <Monoisotopic Mass>
457.935396

>  <Druglikeness>
-17.718

$$$$
Compound 260
Actelion Java MolfileCreator 1.0

 28 30  0  0  1  0  0  0  0  0999 V2000
    0.0000   -0.0000   -0.0000 O   0  0  0  0  0  0  0  0  0  0  0  0
   -0.0237   -1.4928   -0.0000 C   0  0  0  0  0  0  0  0  0  0  0  0
    1.2677   -2.2392   -0.0000 O   0  0  0  0  0  0  0  0  0  0  0  0
   -1.3388   -2.2273   -0.0000 C   0  0  0  0  0  0  0  0  0  0  0  0
    1.2440   -3.7320   -0.0000 C   0  0  0  0  0  0  0  0  0  0  0  0
    2.5235   -4.4784   -0.0000 C   0  0  0  0  0  0  0  0  0  0  0  0
   -0.0711   -4.4665   -0.0000 C   0  0  0  0  0  0  0  0  0  0  0  0
    2.4998   -5.9712   -0.0000 C   0  0  0  0  0  0  0  0  0  0  0  0
    3.8149   -3.7201   -0.0000 C   0  0  0  0  0  0  0  0  0  0  0  0
   -0.0829   -5.9475   -0.0000 C   0  0  0  0  0  0  0  0  0  0  0  0
    1.1848   -6.6939   -0.0000 C   0  0  0  0  0  0  0  0  0  0  0  0
    5.1063   -4.4665   -0.0000 C   0  0  0  0  0  0  0  0  0  0  0  0
    3.8149   -2.2036   -0.0000 C   0  0  0  0  0  0  0  0  0  0  0  0
   -1.3862   -6.6939   -0.0000 C   0  0  0  0  0  0  0  0  0  0  0  0
    1.1848   -8.1867   -0.0000 C   0  0  0  0  0  0  0  0  0  0  0  0
   -1.3980   -8.1867   -0.0000 C   0  0  0  0  0  0  0  0  0  0  0  0
   -2.7012   -5.9238   -0.0000 C   0  0  0  0  0  0  0  0  0  0  0  0
   -1.4099   -5.1774   -0.0000 C   0  0  0  0  0  0  0  0  0  0  0  0
   -0.1303   -8.9212   -0.0000 C   0  0  0  0  0  0  0  0  0  0  0  0
   -2.7131   -8.9212   -0.0000 C   0  0  0  0  0  0  0  0  0  0  0  0
   -4.0163   -6.6702   -0.0000 C   0  0  0  0  0  0  0  0  0  0  0  0
   -4.0282   -8.1630   -0.0000 C   0  0  0  0  0  0  0  0  0  0  0  0
   -3.4950  -10.2126   -0.0000 C   0  0  0  0  0  0  0  0  0  0  0  0
   -2.3458  -10.3548   -0.0000 C   0  0  0  0  0  0  0  0  0  0  0  0
   -5.3433   -8.9094   -0.0000 O   0  0  0  0  0  0  0  0  0  0  0  0
   -6.6583   -8.1511   -0.0000 C   0  0  0  0  0  0  0  0  0  0  0  0
   -6.6702   -6.6346   -0.0000 O   0  0  0  0  0  0  0  0  0  0  0  0
   -7.9734   -8.8975   -0.0000 C   0  0  0  0  0  0  0  0  0  0  0  0
  1  2  2  0  0  0  0
  2  3  1  0  0  0  0
  2  4  1  0  0  0  0
  3  5  1  0  0  0  0
  5  6  2  0  0  0  0
  5  7  1  0  0  0  0
  6  8  1  0  0  0  0
  6  9  1  0  0  0  0
  7 10  2  0  0  0  0
  8 11  2  0  0  0  0
  9 12  1  0  0  0  0
  9 13  1  0  0  0  0
 10 14  1  0  0  0  0
 11 15  1  0  0  0  0
 14 16  1  0  0  0  0
 14 17  1  0  0  0  0
 14 18  1  1  0  0  0
 15 19  2  0  0  0  0
 16 20  1  0  0  0  0
 17 21  1  0  0  0  0
 20 22  1  0  0  0  0
 20 23  1  0  0  0  0
 20 24  1  0  0  0  0
 22 25  1  1  0  0  0
 25 26  1  0  0  0  0
 26 27  2  0  0  0  0
 26 28  1  0  0  0  0
 10 11  1  0  0  0  0
 16 19  1  1  0  0  0
 21 22  1  0  0  0  0
M  END
>  <MolRegNo>
387467

>  <m>


>  <Value>
0

>  <Unit>


>  <Type>
Activity

>  <Ligand Efficiency>


>  <Binding Efficiency>


>  <Surface Efficiency>


>  <Assay Index>
294025

>  <Assay Category>


>  <Assay Organism>
SARS coronavirus

>  <Target ID>
100499

>  <Target Name>
SARS coronavirus

>  <Target Organism>
SARS coronavirus

>  <Target Description>
Target is a complete organism

>  <Sequence Accession>


>  <Reference>
J. Med. Chem. 50 (17), 4087-4095 (2007)

>  <Pubmed ID>
17663539

>  <DOI>
10.1021/jm070295s

>  <InChI-Key>
INFKGIQNEZSZMS-CQOQZXRMSA-N

>  <Molecular Formula>
C24H32O4

>  <Monoisotopic Mass>
384.230060

>  <Druglikeness>
-1.6091

$$$$
Compound 261
Actelion Java MolfileCreator 1.0

 28 30  0  0  1  0  0  0  0  0999 V2000
    0.0000   -0.0000   -0.0000 O   0  0  0  0  0  0  0  0  0  0  0  0
   -0.0237   -1.4928   -0.0000 C   0  0  0  0  0  0  0  0  0  0  0  0
    1.2677   -2.2392   -0.0000 O   0  0  0  0  0  0  0  0  0  0  0  0
   -1.3388   -2.2273   -0.0000 C   0  0  0  0  0  0  0  0  0  0  0  0
    1.2440   -3.7320   -0.0000 C   0  0  0  0  0  0  0  0  0  0  0  0
    2.5235   -4.4784   -0.0000 C   0  0  0  0  0  0  0  0  0  0  0  0
   -0.0711   -4.4665   -0.0000 C   0  0  0  0  0  0  0  0  0  0  0  0
    2.4998   -5.9712   -0.0000 C   0  0  0  0  0  0  0  0  0  0  0  0
    3.8149   -3.7201   -0.0000 C   0  0  0  0  0  0  0  0  0  0  0  0
   -0.0829   -5.9475   -0.0000 C   0  0  0  0  0  0  0  0  0  0  0  0
    1.1848   -6.6939   -0.0000 C   0  0  0  0  0  0  0  0  0  0  0  0
    5.1063   -4.4665   -0.0000 C   0  0  0  0  0  0  0  0  0  0  0  0
    3.8149   -2.2036   -0.0000 C   0  0  0  0  0  0  0  0  0  0  0  0
   -1.3862   -6.6939   -0.0000 C   0  0  0  0  0  0  0  0  0  0  0  0
    1.1848   -8.1867   -0.0000 C   0  0  0  0  0  0  0  0  0  0  0  0
   -1.3980   -8.1867   -0.0000 C   0  0  0  0  0  0  0  0  0  0  0  0
   -2.7012   -5.9238   -0.0000 C   0  0  0  0  0  0  0  0  0  0  0  0
   -1.4099   -5.1774   -0.0000 C   0  0  0  0  0  0  0  0  0  0  0  0
   -0.1303   -8.9212   -0.0000 C   0  0  0  0  0  0  0  0  0  0  0  0
   -2.7131   -8.9212   -0.0000 C   0  0  0  0  0  0  0  0  0  0  0  0
   -4.0163   -6.6702   -0.0000 C   0  0  0  0  0  0  0  0  0  0  0  0
   -4.0282   -8.1630   -0.0000 C   0  0  0  0  0  0  0  0  0  0  0  0
   -3.4950  -10.2126   -0.0000 C   0  0  0  0  0  0  0  0  0  0  0  0
   -2.3458  -10.3548   -0.0000 C   0  0  0  0  0  0  0  0  0  0  0  0
   -5.3433   -8.9094   -0.0000 O   0  0  0  0  0  0  0  0  0  0  0  0
   -6.6583   -8.1511   -0.0000 C   0  0  0  0  0  0  0  0  0  0  0  0
   -6.6702   -6.6346   -0.0000 O   0  0  0  0  0  0  0  0  0  0  0  0
   -7.9734   -8.8975   -0.0000 C   0  0  0  0  0  0  0  0  0  0  0  0
  1  2  2  0  0  0  0
  2  3  1  0  0  0  0
  2  4  1  0  0  0  0
  3  5  1  0  0  0  0
  5  6  2  0  0  0  0
  5  7  1  0  0  0  0
  6  8  1  0  0  0  0
  6  9  1  0  0  0  0
  7 10  2  0  0  0  0
  8 11  2  0  0  0  0
  9 12  1  0  0  0  0
  9 13  1  0  0  0  0
 10 14  1  0  0  0  0
 11 15  1  0  0  0  0
 14 16  1  0  0  0  0
 14 17  1  0  0  0  0
 14 18  1  1  0  0  0
 15 19  2  0  0  0  0
 16 20  1  0  0  0  0
 17 21  1  0  0  0  0
 20 22  1  0  0  0  0
 20 23  1  0  0  0  0
 20 24  1  0  0  0  0
 22 25  1  1  0  0  0
 25 26  1  0  0  0  0
 26 27  2  0  0  0  0
 26 28  1  0  0  0  0
 10 11  1  0  0  0  0
 16 19  1  1  0  0  0
 21 22  1  0  0  0  0
M  END
>  <MolRegNo>
387467

>  <m>
=

>  <Value>
1570

>  <Unit>
nM

>  <Type>
EC50

>  <Ligand Efficiency>


>  <Binding Efficiency>


>  <Surface Efficiency>


>  <Assay Index>
294026

>  <Assay Category>


>  <Assay Organism>
SARS coronavirus

>  <Target ID>
100499

>  <Target Name>
SARS coronavirus

>  <Target Organism>
SARS coronavirus

>  <Target Description>
Target is a complete organism

>  <Sequence Accession>


>  <Reference>
J. Med. Chem. 50 (17), 4087-4095 (2007)

>  <Pubmed ID>
17663539

>  <DOI>
10.1021/jm070295s

>  <InChI-Key>
INFKGIQNEZSZMS-CQOQZXRMSA-N

>  <Molecular Formula>
C24H32O4

>  <Monoisotopic Mass>
384.230060

>  <Druglikeness>
-1.6091

$$$$
Compound 262
Actelion Java MolfileCreator 1.0

 28 30  0  0  1  0  0  0  0  0999 V2000
    0.0000   -0.0000   -0.0000 O   0  0  0  0  0  0  0  0  0  0  0  0
   -0.0237   -1.4928   -0.0000 C   0  0  0  0  0  0  0  0  0  0  0  0
    1.2677   -2.2392   -0.0000 O   0  0  0  0  0  0  0  0  0  0  0  0
   -1.3388   -2.2273   -0.0000 C   0  0  0  0  0  0  0  0  0  0  0  0
    1.2440   -3.7320   -0.0000 C   0  0  0  0  0  0  0  0  0  0  0  0
    2.5235   -4.4784   -0.0000 C   0  0  0  0  0  0  0  0  0  0  0  0
   -0.0711   -4.4665   -0.0000 C   0  0  0  0  0  0  0  0  0  0  0  0
    2.4998   -5.9712   -0.0000 C   0  0  0  0  0  0  0  0  0  0  0  0
    3.8149   -3.7201   -0.0000 C   0  0  0  0  0  0  0  0  0  0  0  0
   -0.0829   -5.9475   -0.0000 C   0  0  0  0  0  0  0  0  0  0  0  0
    1.1848   -6.6939   -0.0000 C   0  0  0  0  0  0  0  0  0  0  0  0
    5.1063   -4.4665   -0.0000 C   0  0  0  0  0  0  0  0  0  0  0  0
    3.8149   -2.2036   -0.0000 C   0  0  0  0  0  0  0  0  0  0  0  0
   -1.3862   -6.6939   -0.0000 C   0  0  0  0  0  0  0  0  0  0  0  0
    1.1848   -8.1867   -0.0000 C   0  0  0  0  0  0  0  0  0  0  0  0
   -1.3980   -8.1867   -0.0000 C   0  0  0  0  0  0  0  0  0  0  0  0
   -2.7012   -5.9238   -0.0000 C   0  0  0  0  0  0  0  0  0  0  0  0
   -1.4099   -5.1774   -0.0000 C   0  0  0  0  0  0  0  0  0  0  0  0
   -0.1303   -8.9212   -0.0000 C   0  0  0  0  0  0  0  0  0  0  0  0
   -2.7131   -8.9212   -0.0000 C   0  0  0  0  0  0  0  0  0  0  0  0
   -4.0163   -6.6702   -0.0000 C   0  0  0  0  0  0  0  0  0  0  0  0
   -4.0282   -8.1630   -0.0000 C   0  0  0  0  0  0  0  0  0  0  0  0
   -3.4950  -10.2126   -0.0000 C   0  0  0  0  0  0  0  0  0  0  0  0
   -2.3458  -10.3548   -0.0000 C   0  0  0  0  0  0  0  0  0  0  0  0
   -5.3433   -8.9094   -0.0000 O   0  0  0  0  0  0  0  0  0  0  0  0
   -6.6583   -8.1511   -0.0000 C   0  0  0  0  0  0  0  0  0  0  0  0
   -6.6702   -6.6346   -0.0000 O   0  0  0  0  0  0  0  0  0  0  0  0
   -7.9734   -8.8975   -0.0000 C   0  0  0  0  0  0  0  0  0  0  0  0
  1  2  2  0  0  0  0
  2  3  1  0  0  0  0
  2  4  1  0  0  0  0
  3  5  1  0  0  0  0
  5  6  2  0  0  0  0
  5  7  1  0  0  0  0
  6  8  1  0  0  0  0
  6  9  1  0  0  0  0
  7 10  2  0  0  0  0
  8 11  2  0  0  0  0
  9 12  1  0  0  0  0
  9 13  1  0  0  0  0
 10 14  1  0  0  0  0
 11 15  1  0  0  0  0
 14 16  1  0  0  0  0
 14 17  1  0  0  0  0
 14 18  1  1  0  0  0
 15 19  2  0  0  0  0
 16 20  1  0  0  0  0
 17 21  1  0  0  0  0
 20 22  1  0  0  0  0
 20 23  1  0  0  0  0
 20 24  1  0  0  0  0
 22 25  1  1  0  0  0
 25 26  1  0  0  0  0
 26 27  2  0  0  0  0
 26 28  1  0  0  0  0
 10 11  1  0  0  0  0
 16 19  1  1  0  0  0
 21 22  1  0  0  0  0
M  END
>  <MolRegNo>
387467

>  <m>
<

>  <Value>
25

>  <Unit>
%

>  <Type>
Inhibition

>  <Ligand Efficiency>


>  <Binding Efficiency>


>  <Surface Efficiency>


>  <Assay Index>
294022

>  <Assay Category>


>  <Assay Organism>
SARS coronavirus

>  <Target ID>
100499

>  <Target Name>
SARS coronavirus

>  <Target Organism>
SARS coronavirus

>  <Target Description>
Target is a complete organism

>  <Sequence Accession>


>  <Reference>
J. Med. Chem. 50 (17), 4087-4095 (2007)

>  <Pubmed ID>
17663539

>  <DOI>
10.1021/jm070295s

>  <InChI-Key>
INFKGIQNEZSZMS-CQOQZXRMSA-N

>  <Molecular Formula>
C24H32O4

>  <Monoisotopic Mass>
384.230060

>  <Druglikeness>
-1.6091

$$$$
Compound 263
Actelion Java MolfileCreator 1.0

 28 30  0  0  1  0  0  0  0  0999 V2000
    0.0000   -0.0000   -0.0000 O   0  0  0  0  0  0  0  0  0  0  0  0
   -0.0237   -1.4928   -0.0000 C   0  0  0  0  0  0  0  0  0  0  0  0
    1.2677   -2.2392   -0.0000 O   0  0  0  0  0  0  0  0  0  0  0  0
   -1.3388   -2.2273   -0.0000 C   0  0  0  0  0  0  0  0  0  0  0  0
    1.2440   -3.7320   -0.0000 C   0  0  0  0  0  0  0  0  0  0  0  0
    2.5235   -4.4784   -0.0000 C   0  0  0  0  0  0  0  0  0  0  0  0
   -0.0711   -4.4665   -0.0000 C   0  0  0  0  0  0  0  0  0  0  0  0
    2.4998   -5.9712   -0.0000 C   0  0  0  0  0  0  0  0  0  0  0  0
    3.8149   -3.7201   -0.0000 C   0  0  0  0  0  0  0  0  0  0  0  0
   -0.0829   -5.9475   -0.0000 C   0  0  0  0  0  0  0  0  0  0  0  0
    1.1848   -6.6939   -0.0000 C   0  0  0  0  0  0  0  0  0  0  0  0
    5.1063   -4.4665   -0.0000 C   0  0  0  0  0  0  0  0  0  0  0  0
    3.8149   -2.2036   -0.0000 C   0  0  0  0  0  0  0  0  0  0  0  0
   -1.3862   -6.6939   -0.0000 C   0  0  0  0  0  0  0  0  0  0  0  0
    1.1848   -8.1867   -0.0000 C   0  0  0  0  0  0  0  0  0  0  0  0
   -1.3980   -8.1867   -0.0000 C   0  0  0  0  0  0  0  0  0  0  0  0
   -2.7012   -5.9238   -0.0000 C   0  0  0  0  0  0  0  0  0  0  0  0
   -1.4099   -5.1774   -0.0000 C   0  0  0  0  0  0  0  0  0  0  0  0
   -0.1303   -8.9212   -0.0000 C   0  0  0  0  0  0  0  0  0  0  0  0
   -2.7131   -8.9212   -0.0000 C   0  0  0  0  0  0  0  0  0  0  0  0
   -4.0163   -6.6702   -0.0000 C   0  0  0  0  0  0  0  0  0  0  0  0
   -4.0282   -8.1630   -0.0000 C   0  0  0  0  0  0  0  0  0  0  0  0
   -3.4950  -10.2126   -0.0000 C   0  0  0  0  0  0  0  0  0  0  0  0
   -2.3458  -10.3548   -0.0000 C   0  0  0  0  0  0  0  0  0  0  0  0
   -5.3433   -8.9094   -0.0000 O   0  0  0  0  0  0  0  0  0  0  0  0
   -6.6583   -8.1511   -0.0000 C   0  0  0  0  0  0  0  0  0  0  0  0
   -6.6702   -6.6346   -0.0000 O   0  0  0  0  0  0  0  0  0  0  0  0
   -7.9734   -8.8975   -0.0000 C   0  0  0  0  0  0  0  0  0  0  0  0
  1  2  2  0  0  0  0
  2  3  1  0  0  0  0
  2  4  1  0  0  0  0
  3  5  1  0  0  0  0
  5  6  2  0  0  0  0
  5  7  1  0  0  0  0
  6  8  1  0  0  0  0
  6  9  1  0  0  0  0
  7 10  2  0  0  0  0
  8 11  2  0  0  0  0
  9 12  1  0  0  0  0
  9 13  1  0  0  0  0
 10 14  1  0  0  0  0
 11 15  1  0  0  0  0
 14 16  1  0  0  0  0
 14 17  1  0  0  0  0
 14 18  1  1  0  0  0
 15 19  2  0  0  0  0
 16 20  1  0  0  0  0
 17 21  1  0  0  0  0
 20 22  1  0  0  0  0
 20 23  1  0  0  0  0
 20 24  1  0  0  0  0
 22 25  1  1  0  0  0
 25 26  1  0  0  0  0
 26 27  2  0  0  0  0
 26 28  1  0  0  0  0
 10 11  1  0  0  0  0
 16 19  1  1  0  0  0
 21 22  1  0  0  0  0
M  END
>  <MolRegNo>
387467

>  <m>
=

>  <Value>
25

>  <Unit>
%

>  <Type>
Inhibition

>  <Ligand Efficiency>


>  <Binding Efficiency>


>  <Surface Efficiency>


>  <Assay Index>
294023

>  <Assay Category>


>  <Assay Organism>
SARS coronavirus

>  <Target ID>
100499

>  <Target Name>
SARS coronavirus

>  <Target Organism>
SARS coronavirus

>  <Target Description>
Target is a complete organism

>  <Sequence Accession>


>  <Reference>
J. Med. Chem. 50 (17), 4087-4095 (2007)

>  <Pubmed ID>
17663539

>  <DOI>
10.1021/jm070295s

>  <InChI-Key>
INFKGIQNEZSZMS-CQOQZXRMSA-N

>  <Molecular Formula>
C24H32O4

>  <Monoisotopic Mass>
384.230060

>  <Druglikeness>
-1.6091

$$$$
Compound 264
Actelion Java MolfileCreator 1.0

 28 30  0  0  1  0  0  0  0  0999 V2000
    0.0000   -0.0000   -0.0000 O   0  0  0  0  0  0  0  0  0  0  0  0
   -0.0237   -1.4928   -0.0000 C   0  0  0  0  0  0  0  0  0  0  0  0
    1.2677   -2.2392   -0.0000 O   0  0  0  0  0  0  0  0  0  0  0  0
   -1.3388   -2.2273   -0.0000 C   0  0  0  0  0  0  0  0  0  0  0  0
    1.2440   -3.7320   -0.0000 C   0  0  0  0  0  0  0  0  0  0  0  0
    2.5235   -4.4784   -0.0000 C   0  0  0  0  0  0  0  0  0  0  0  0
   -0.0711   -4.4665   -0.0000 C   0  0  0  0  0  0  0  0  0  0  0  0
    2.4998   -5.9712   -0.0000 C   0  0  0  0  0  0  0  0  0  0  0  0
    3.8149   -3.7201   -0.0000 C   0  0  0  0  0  0  0  0  0  0  0  0
   -0.0829   -5.9475   -0.0000 C   0  0  0  0  0  0  0  0  0  0  0  0
    1.1848   -6.6939   -0.0000 C   0  0  0  0  0  0  0  0  0  0  0  0
    5.1063   -4.4665   -0.0000 C   0  0  0  0  0  0  0  0  0  0  0  0
    3.8149   -2.2036   -0.0000 C   0  0  0  0  0  0  0  0  0  0  0  0
   -1.3862   -6.6939   -0.0000 C   0  0  0  0  0  0  0  0  0  0  0  0
    1.1848   -8.1867   -0.0000 C   0  0  0  0  0  0  0  0  0  0  0  0
   -1.3980   -8.1867   -0.0000 C   0  0  0  0  0  0  0  0  0  0  0  0
   -2.7012   -5.9238   -0.0000 C   0  0  0  0  0  0  0  0  0  0  0  0
   -1.4099   -5.1774   -0.0000 C   0  0  0  0  0  0  0  0  0  0  0  0
   -0.1303   -8.9212   -0.0000 C   0  0  0  0  0  0  0  0  0  0  0  0
   -2.7131   -8.9212   -0.0000 C   0  0  0  0  0  0  0  0  0  0  0  0
   -4.0163   -6.6702   -0.0000 C   0  0  0  0  0  0  0  0  0  0  0  0
   -4.0282   -8.1630   -0.0000 C   0  0  0  0  0  0  0  0  0  0  0  0
   -3.4950  -10.2126   -0.0000 C   0  0  0  0  0  0  0  0  0  0  0  0
   -2.3458  -10.3548   -0.0000 C   0  0  0  0  0  0  0  0  0  0  0  0
   -5.3433   -8.9094   -0.0000 O   0  0  0  0  0  0  0  0  0  0  0  0
   -6.6583   -8.1511   -0.0000 C   0  0  0  0  0  0  0  0  0  0  0  0
   -6.6702   -6.6346   -0.0000 O   0  0  0  0  0  0  0  0  0  0  0  0
   -7.9734   -8.8975   -0.0000 C   0  0  0  0  0  0  0  0  0  0  0  0
  1  2  2  0  0  0  0
  2  3  1  0  0  0  0
  2  4  1  0  0  0  0
  3  5  1  0  0  0  0
  5  6  2  0  0  0  0
  5  7  1  0  0  0  0
  6  8  1  0  0  0  0
  6  9  1  0  0  0  0
  7 10  2  0  0  0  0
  8 11  2  0  0  0  0
  9 12  1  0  0  0  0
  9 13  1  0  0  0  0
 10 14  1  0  0  0  0
 11 15  1  0  0  0  0
 14 16  1  0  0  0  0
 14 17  1  0  0  0  0
 14 18  1  1  0  0  0
 15 19  2  0  0  0  0
 16 20  1  0  0  0  0
 17 21  1  0  0  0  0
 20 22  1  0  0  0  0
 20 23  1  0  0  0  0
 20 24  1  0  0  0  0
 22 25  1  1  0  0  0
 25 26  1  0  0  0  0
 26 27  2  0  0  0  0
 26 28  1  0  0  0  0
 10 11  1  0  0  0  0
 16 19  1  1  0  0  0
 21 22  1  0  0  0  0
M  END
>  <MolRegNo>
387467

>  <m>
=

>  <Value>
25

>  <Unit>
%

>  <Type>
Inhibition

>  <Ligand Efficiency>


>  <Binding Efficiency>


>  <Surface Efficiency>


>  <Assay Index>
294024

>  <Assay Category>


>  <Assay Organism>
SARS coronavirus

>  <Target ID>
100499

>  <Target Name>
SARS coronavirus

>  <Target Organism>
SARS coronavirus

>  <Target Description>
Target is a complete organism

>  <Sequence Accession>


>  <Reference>
J. Med. Chem. 50 (17), 4087-4095 (2007)

>  <Pubmed ID>
17663539

>  <DOI>
10.1021/jm070295s

>  <InChI-Key>
INFKGIQNEZSZMS-CQOQZXRMSA-N

>  <Molecular Formula>
C24H32O4

>  <Monoisotopic Mass>
384.230060

>  <Druglikeness>
-1.6091

$$$$
Compound 265
Actelion Java MolfileCreator 1.0

 22 24  0  0  1  0  0  0  0  0999 V2000
    0.0000   -0.0000   -0.0000 O   0  0  0  0  0  0  0  0  0  0  0  0
   -1.3031    0.7631   -0.0000 C   0  0  0  0  0  0  0  0  0  0  0  0
   -1.3148    2.2657   -0.0000 C   0  0  0  0  0  0  0  0  0  0  0  0
   -2.6062    0.0235   -0.0000 C   0  0  0  0  0  0  0  0  0  0  0  0
   -2.6179    3.0288   -0.0000 C   0  0  0  0  0  0  0  0  0  0  0  0
   -0.0352    3.0288   -0.0000 C   0  0  0  0  0  0  0  0  0  0  0  0
   -3.9093    0.7866   -0.0000 C   0  0  0  0  0  0  0  0  0  0  0  0
   -2.6297    4.5315   -0.0000 C   0  0  0  0  0  0  0  0  0  0  0  0
   -3.9210    2.2892   -0.0000 C   0  0  0  0  0  0  0  0  0  0  0  0
   -0.0470    4.5315   -0.0000 C   0  0  0  0  0  0  0  0  0  0  0  0
   -5.2124    0.0470   -0.0000 C   0  0  0  0  0  0  0  0  0  0  0  0
   -1.3501    5.2946   -0.0000 C   0  0  0  0  0  0  0  0  0  0  0  0
   -5.2241    3.0523   -0.0000 C   0  0  0  0  0  0  0  0  0  0  0  0
   -3.9445    3.7919   -0.0000 C   0  0  0  0  0  0  0  0  0  0  0  0
    1.2444    5.2946   -0.0000 C   0  0  0  0  0  0  0  0  0  0  0  0
   -6.5155    0.8100   -0.0000 C   0  0  0  0  0  0  0  0  0  0  0  0
   -4.4845   -1.2327   -0.0000 C   0  0  0  0  0  0  0  0  0  0  0  0
   -6.2807   -0.9979   -0.0000 C   0  0  0  0  0  0  0  0  0  0  0  0
   -1.3735    6.7972   -0.0000 O   0  0  0  0  0  0  0  0  0  0  0  0
   -6.5272    2.3127   -0.0000 C   0  0  0  0  0  0  0  0  0  0  0  0
    2.5240    4.5550   -0.0000 C   0  0  0  0  0  0  0  0  0  0  0  0
    1.2327    6.7972   -0.0000 C   0  0  0  0  0  0  0  0  0  0  0  0
  1  2  2  0  0  0  0
  2  3  1  0  0  0  0
  2  4  1  0  0  0  0
  3  5  2  0  0  0  0
  3  6  1  0  0  0  0
  7  4  1  1  0  0  0
  5  8  1  0  0  0  0
  5  9  1  0  0  0  0
  6 10  2  0  0  0  0
  7 11  1  0  0  0  0
  8 12  2  0  0  0  0
  9 13  1  0  0  0  0
  9 14  1  1  0  0  0
 10 15  1  0  0  0  0
 11 16  1  0  0  0  0
 11 17  1  0  0  0  0
 11 18  1  0  0  0  0
 12 19  1  0  0  0  0
 13 20  1  0  0  0  0
 15 21  1  0  0  0  0
 15 22  1  0  0  0  0
  7  9  1  0  0  0  0
 10 12  1  0  0  0  0
 16 20  1  0  0  0  0
M  END
>  <MolRegNo>
325189

>  <m>


>  <Value>
0

>  <Unit>


>  <Type>
EC50

>  <Ligand Efficiency>


>  <Binding Efficiency>


>  <Surface Efficiency>


>  <Assay Index>
294026

>  <Assay Category>


>  <Assay Organism>
SARS coronavirus

>  <Target ID>
100499

>  <Target Name>
SARS coronavirus

>  <Target Organism>
SARS coronavirus

>  <Target Description>
Target is a complete organism

>  <Sequence Accession>


>  <Reference>
J. Med. Chem. 50 (17), 4087-4095 (2007)

>  <Pubmed ID>
17663539

>  <DOI>
10.1021/jm070295s

>  <InChI-Key>
IPEHJNRNYPOFII-UYAOXDASSA-N

>  <Molecular Formula>
C20H28O2

>  <Monoisotopic Mass>
300.208930

>  <Druglikeness>
-4.5735

$$$$
Compound 266
Actelion Java MolfileCreator 1.0

 22 24  0  0  1  0  0  0  0  0999 V2000
    0.0000   -0.0000   -0.0000 O   0  0  0  0  0  0  0  0  0  0  0  0
   -1.3031    0.7631   -0.0000 C   0  0  0  0  0  0  0  0  0  0  0  0
   -1.3148    2.2657   -0.0000 C   0  0  0  0  0  0  0  0  0  0  0  0
   -2.6062    0.0235   -0.0000 C   0  0  0  0  0  0  0  0  0  0  0  0
   -2.6179    3.0288   -0.0000 C   0  0  0  0  0  0  0  0  0  0  0  0
   -0.0352    3.0288   -0.0000 C   0  0  0  0  0  0  0  0  0  0  0  0
   -3.9093    0.7866   -0.0000 C   0  0  0  0  0  0  0  0  0  0  0  0
   -2.6297    4.5315   -0.0000 C   0  0  0  0  0  0  0  0  0  0  0  0
   -3.9210    2.2892   -0.0000 C   0  0  0  0  0  0  0  0  0  0  0  0
   -0.0470    4.5315   -0.0000 C   0  0  0  0  0  0  0  0  0  0  0  0
   -5.2124    0.0470   -0.0000 C   0  0  0  0  0  0  0  0  0  0  0  0
   -1.3501    5.2946   -0.0000 C   0  0  0  0  0  0  0  0  0  0  0  0
   -5.2241    3.0523   -0.0000 C   0  0  0  0  0  0  0  0  0  0  0  0
   -3.9445    3.7919   -0.0000 C   0  0  0  0  0  0  0  0  0  0  0  0
    1.2444    5.2946   -0.0000 C   0  0  0  0  0  0  0  0  0  0  0  0
   -6.5155    0.8100   -0.0000 C   0  0  0  0  0  0  0  0  0  0  0  0
   -4.4845   -1.2327   -0.0000 C   0  0  0  0  0  0  0  0  0  0  0  0
   -6.2807   -0.9979   -0.0000 C   0  0  0  0  0  0  0  0  0  0  0  0
   -1.3735    6.7972   -0.0000 O   0  0  0  0  0  0  0  0  0  0  0  0
   -6.5272    2.3127   -0.0000 C   0  0  0  0  0  0  0  0  0  0  0  0
    2.5240    4.5550   -0.0000 C   0  0  0  0  0  0  0  0  0  0  0  0
    1.2327    6.7972   -0.0000 C   0  0  0  0  0  0  0  0  0  0  0  0
  1  2  2  0  0  0  0
  2  3  1  0  0  0  0
  2  4  1  0  0  0  0
  3  5  2  0  0  0  0
  3  6  1  0  0  0  0
  7  4  1  1  0  0  0
  5  8  1  0  0  0  0
  5  9  1  0  0  0  0
  6 10  2  0  0  0  0
  7 11  1  0  0  0  0
  8 12  2  0  0  0  0
  9 13  1  0  0  0  0
  9 14  1  1  0  0  0
 10 15  1  0  0  0  0
 11 16  1  0  0  0  0
 11 17  1  0  0  0  0
 11 18  1  0  0  0  0
 12 19  1  0  0  0  0
 13 20  1  0  0  0  0
 15 21  1  0  0  0  0
 15 22  1  0  0  0  0
  7  9  1  0  0  0  0
 10 12  1  0  0  0  0
 16 20  1  0  0  0  0
M  END
>  <MolRegNo>
325189

>  <m>
<

>  <Value>
25

>  <Unit>
%

>  <Type>
Inhibition

>  <Ligand Efficiency>


>  <Binding Efficiency>


>  <Surface Efficiency>


>  <Assay Index>
294022

>  <Assay Category>


>  <Assay Organism>
SARS coronavirus

>  <Target ID>
100499

>  <Target Name>
SARS coronavirus

>  <Target Organism>
SARS coronavirus

>  <Target Description>
Target is a complete organism

>  <Sequence Accession>


>  <Reference>
J. Med. Chem. 50 (17), 4087-4095 (2007)

>  <Pubmed ID>
17663539

>  <DOI>
10.1021/jm070295s

>  <InChI-Key>
IPEHJNRNYPOFII-UYAOXDASSA-N

>  <Molecular Formula>
C20H28O2

>  <Monoisotopic Mass>
300.208930

>  <Druglikeness>
-4.5735

$$$$
Compound 267
Actelion Java MolfileCreator 1.0

 22 24  0  0  1  0  0  0  0  0999 V2000
    0.0000   -0.0000   -0.0000 O   0  0  0  0  0  0  0  0  0  0  0  0
   -1.3031    0.7631   -0.0000 C   0  0  0  0  0  0  0  0  0  0  0  0
   -1.3148    2.2657   -0.0000 C   0  0  0  0  0  0  0  0  0  0  0  0
   -2.6062    0.0235   -0.0000 C   0  0  0  0  0  0  0  0  0  0  0  0
   -2.6179    3.0288   -0.0000 C   0  0  0  0  0  0  0  0  0  0  0  0
   -0.0352    3.0288   -0.0000 C   0  0  0  0  0  0  0  0  0  0  0  0
   -3.9093    0.7866   -0.0000 C   0  0  0  0  0  0  0  0  0  0  0  0
   -2.6297    4.5315   -0.0000 C   0  0  0  0  0  0  0  0  0  0  0  0
   -3.9210    2.2892   -0.0000 C   0  0  0  0  0  0  0  0  0  0  0  0
   -0.0470    4.5315   -0.0000 C   0  0  0  0  0  0  0  0  0  0  0  0
   -5.2124    0.0470   -0.0000 C   0  0  0  0  0  0  0  0  0  0  0  0
   -1.3501    5.2946   -0.0000 C   0  0  0  0  0  0  0  0  0  0  0  0
   -5.2241    3.0523   -0.0000 C   0  0  0  0  0  0  0  0  0  0  0  0
   -3.9445    3.7919   -0.0000 C   0  0  0  0  0  0  0  0  0  0  0  0
    1.2444    5.2946   -0.0000 C   0  0  0  0  0  0  0  0  0  0  0  0
   -6.5155    0.8100   -0.0000 C   0  0  0  0  0  0  0  0  0  0  0  0
   -4.4845   -1.2327   -0.0000 C   0  0  0  0  0  0  0  0  0  0  0  0
   -6.2807   -0.9979   -0.0000 C   0  0  0  0  0  0  0  0  0  0  0  0
   -1.3735    6.7972   -0.0000 O   0  0  0  0  0  0  0  0  0  0  0  0
   -6.5272    2.3127   -0.0000 C   0  0  0  0  0  0  0  0  0  0  0  0
    2.5240    4.5550   -0.0000 C   0  0  0  0  0  0  0  0  0  0  0  0
    1.2327    6.7972   -0.0000 C   0  0  0  0  0  0  0  0  0  0  0  0
  1  2  2  0  0  0  0
  2  3  1  0  0  0  0
  2  4  1  0  0  0  0
  3  5  2  0  0  0  0
  3  6  1  0  0  0  0
  7  4  1  1  0  0  0
  5  8  1  0  0  0  0
  5  9  1  0  0  0  0
  6 10  2  0  0  0  0
  7 11  1  0  0  0  0
  8 12  2  0  0  0  0
  9 13  1  0  0  0  0
  9 14  1  1  0  0  0
 10 15  1  0  0  0  0
 11 16  1  0  0  0  0
 11 17  1  0  0  0  0
 11 18  1  0  0  0  0
 12 19  1  0  0  0  0
 13 20  1  0  0  0  0
 15 21  1  0  0  0  0
 15 22  1  0  0  0  0
  7  9  1  0  0  0  0
 10 12  1  0  0  0  0
 16 20  1  0  0  0  0
M  END
>  <MolRegNo>
325189

>  <m>
<

>  <Value>
25

>  <Unit>
%

>  <Type>
Inhibition

>  <Ligand Efficiency>


>  <Binding Efficiency>


>  <Surface Efficiency>


>  <Assay Index>
294023

>  <Assay Category>


>  <Assay Organism>
SARS coronavirus

>  <Target ID>
100499

>  <Target Name>
SARS coronavirus

>  <Target Organism>
SARS coronavirus

>  <Target Description>
Target is a complete organism

>  <Sequence Accession>


>  <Reference>
J. Med. Chem. 50 (17), 4087-4095 (2007)

>  <Pubmed ID>
17663539

>  <DOI>
10.1021/jm070295s

>  <InChI-Key>
IPEHJNRNYPOFII-UYAOXDASSA-N

>  <Molecular Formula>
C20H28O2

>  <Monoisotopic Mass>
300.208930

>  <Druglikeness>
-4.5735

$$$$
Compound 268
Actelion Java MolfileCreator 1.0

 22 24  0  0  1  0  0  0  0  0999 V2000
    0.0000   -0.0000   -0.0000 O   0  0  0  0  0  0  0  0  0  0  0  0
   -1.3031    0.7631   -0.0000 C   0  0  0  0  0  0  0  0  0  0  0  0
   -1.3148    2.2657   -0.0000 C   0  0  0  0  0  0  0  0  0  0  0  0
   -2.6062    0.0235   -0.0000 C   0  0  0  0  0  0  0  0  0  0  0  0
   -2.6179    3.0288   -0.0000 C   0  0  0  0  0  0  0  0  0  0  0  0
   -0.0352    3.0288   -0.0000 C   0  0  0  0  0  0  0  0  0  0  0  0
   -3.9093    0.7866   -0.0000 C   0  0  0  0  0  0  0  0  0  0  0  0
   -2.6297    4.5315   -0.0000 C   0  0  0  0  0  0  0  0  0  0  0  0
   -3.9210    2.2892   -0.0000 C   0  0  0  0  0  0  0  0  0  0  0  0
   -0.0470    4.5315   -0.0000 C   0  0  0  0  0  0  0  0  0  0  0  0
   -5.2124    0.0470   -0.0000 C   0  0  0  0  0  0  0  0  0  0  0  0
   -1.3501    5.2946   -0.0000 C   0  0  0  0  0  0  0  0  0  0  0  0
   -5.2241    3.0523   -0.0000 C   0  0  0  0  0  0  0  0  0  0  0  0
   -3.9445    3.7919   -0.0000 C   0  0  0  0  0  0  0  0  0  0  0  0
    1.2444    5.2946   -0.0000 C   0  0  0  0  0  0  0  0  0  0  0  0
   -6.5155    0.8100   -0.0000 C   0  0  0  0  0  0  0  0  0  0  0  0
   -4.4845   -1.2327   -0.0000 C   0  0  0  0  0  0  0  0  0  0  0  0
   -6.2807   -0.9979   -0.0000 C   0  0  0  0  0  0  0  0  0  0  0  0
   -1.3735    6.7972   -0.0000 O   0  0  0  0  0  0  0  0  0  0  0  0
   -6.5272    2.3127   -0.0000 C   0  0  0  0  0  0  0  0  0  0  0  0
    2.5240    4.5550   -0.0000 C   0  0  0  0  0  0  0  0  0  0  0  0
    1.2327    6.7972   -0.0000 C   0  0  0  0  0  0  0  0  0  0  0  0
  1  2  2  0  0  0  0
  2  3  1  0  0  0  0
  2  4  1  0  0  0  0
  3  5  2  0  0  0  0
  3  6  1  0  0  0  0
  7  4  1  1  0  0  0
  5  8  1  0  0  0  0
  5  9  1  0  0  0  0
  6 10  2  0  0  0  0
  7 11  1  0  0  0  0
  8 12  2  0  0  0  0
  9 13  1  0  0  0  0
  9 14  1  1  0  0  0
 10 15  1  0  0  0  0
 11 16  1  0  0  0  0
 11 17  1  0  0  0  0
 11 18  1  0  0  0  0
 12 19  1  0  0  0  0
 13 20  1  0  0  0  0
 15 21  1  0  0  0  0
 15 22  1  0  0  0  0
  7  9  1  0  0  0  0
 10 12  1  0  0  0  0
 16 20  1  0  0  0  0
M  END
>  <MolRegNo>
325189

>  <m>


>  <Value>
0

>  <Unit>


>  <Type>
Inhibition

>  <Ligand Efficiency>


>  <Binding Efficiency>


>  <Surface Efficiency>


>  <Assay Index>
294025

>  <Assay Category>


>  <Assay Organism>
SARS coronavirus

>  <Target ID>
100499

>  <Target Name>
SARS coronavirus

>  <Target Organism>
SARS coronavirus

>  <Target Description>
Target is a complete organism

>  <Sequence Accession>


>  <Reference>
J. Med. Chem. 50 (17), 4087-4095 (2007)

>  <Pubmed ID>
17663539

>  <DOI>
10.1021/jm070295s

>  <InChI-Key>
IPEHJNRNYPOFII-UYAOXDASSA-N

>  <Molecular Formula>
C20H28O2

>  <Monoisotopic Mass>
300.208930

>  <Druglikeness>
-4.5735

$$$$
Compound 269
Actelion Java MolfileCreator 1.0

 22 24  0  0  1  0  0  0  0  0999 V2000
    0.0000   -0.0000   -0.0000 O   0  0  0  0  0  0  0  0  0  0  0  0
   -1.3031    0.7631   -0.0000 C   0  0  0  0  0  0  0  0  0  0  0  0
   -1.3148    2.2657   -0.0000 C   0  0  0  0  0  0  0  0  0  0  0  0
   -2.6062    0.0235   -0.0000 C   0  0  0  0  0  0  0  0  0  0  0  0
   -2.6179    3.0288   -0.0000 C   0  0  0  0  0  0  0  0  0  0  0  0
   -0.0352    3.0288   -0.0000 C   0  0  0  0  0  0  0  0  0  0  0  0
   -3.9093    0.7866   -0.0000 C   0  0  0  0  0  0  0  0  0  0  0  0
   -2.6297    4.5315   -0.0000 C   0  0  0  0  0  0  0  0  0  0  0  0
   -3.9210    2.2892   -0.0000 C   0  0  0  0  0  0  0  0  0  0  0  0
   -0.0470    4.5315   -0.0000 C   0  0  0  0  0  0  0  0  0  0  0  0
   -5.2124    0.0470   -0.0000 C   0  0  0  0  0  0  0  0  0  0  0  0
   -1.3501    5.2946   -0.0000 C   0  0  0  0  0  0  0  0  0  0  0  0
   -5.2241    3.0523   -0.0000 C   0  0  0  0  0  0  0  0  0  0  0  0
   -3.9445    3.7919   -0.0000 C   0  0  0  0  0  0  0  0  0  0  0  0
    1.2444    5.2946   -0.0000 C   0  0  0  0  0  0  0  0  0  0  0  0
   -6.5155    0.8100   -0.0000 C   0  0  0  0  0  0  0  0  0  0  0  0
   -4.4845   -1.2327   -0.0000 C   0  0  0  0  0  0  0  0  0  0  0  0
   -6.2807   -0.9979   -0.0000 C   0  0  0  0  0  0  0  0  0  0  0  0
   -1.3735    6.7972   -0.0000 O   0  0  0  0  0  0  0  0  0  0  0  0
   -6.5272    2.3127   -0.0000 C   0  0  0  0  0  0  0  0  0  0  0  0
    2.5240    4.5550   -0.0000 C   0  0  0  0  0  0  0  0  0  0  0  0
    1.2327    6.7972   -0.0000 C   0  0  0  0  0  0  0  0  0  0  0  0
  1  2  2  0  0  0  0
  2  3  1  0  0  0  0
  2  4  1  0  0  0  0
  3  5  2  0  0  0  0
  3  6  1  0  0  0  0
  7  4  1  1  0  0  0
  5  8  1  0  0  0  0
  5  9  1  0  0  0  0
  6 10  2  0  0  0  0
  7 11  1  0  0  0  0
  8 12  2  0  0  0  0
  9 13  1  0  0  0  0
  9 14  1  1  0  0  0
 10 15  1  0  0  0  0
 11 16  1  0  0  0  0
 11 17  1  0  0  0  0
 11 18  1  0  0  0  0
 12 19  1  0  0  0  0
 13 20  1  0  0  0  0
 15 21  1  0  0  0  0
 15 22  1  0  0  0  0
  7  9  1  0  0  0  0
 10 12  1  0  0  0  0
 16 20  1  0  0  0  0
M  END
>  <MolRegNo>
325189

>  <m>


>  <Value>
0

>  <Unit>


>  <Type>
Inhibition

>  <Ligand Efficiency>


>  <Binding Efficiency>


>  <Surface Efficiency>


>  <Assay Index>
294024

>  <Assay Category>


>  <Assay Organism>
SARS coronavirus

>  <Target ID>
100499

>  <Target Name>
SARS coronavirus

>  <Target Organism>
SARS coronavirus

>  <Target Description>
Target is a complete organism

>  <Sequence Accession>


>  <Reference>
J. Med. Chem. 50 (17), 4087-4095 (2007)

>  <Pubmed ID>
17663539

>  <DOI>
10.1021/jm070295s

>  <InChI-Key>
IPEHJNRNYPOFII-UYAOXDASSA-N

>  <Molecular Formula>
C20H28O2

>  <Monoisotopic Mass>
300.208930

>  <Druglikeness>
-4.5735

$$$$
Compound 270
Actelion Java MolfileCreator 1.0

 21 23  0  0  0  0  0  0  0  0999 V2000
    0.0000   -0.0000   -0.0000 O   0  0  0  0  0  0  0  0  0  0  0  0
   -1.3005    0.7566   -0.0000 C   0  0  0  0  0  0  0  0  0  0  0  0
   -1.3123    2.2581   -0.0000 C   0  0  0  0  0  0  0  0  0  0  0  0
   -2.6010    0.0236   -0.0000 C   0  0  0  0  0  0  0  0  0  0  0  0
   -2.6246    3.0266   -0.0000 C   0  0  0  0  0  0  0  0  0  0  0  0
   -0.0236    3.0148   -0.0000 C   0  0  0  0  0  0  0  0  0  0  0  0
   -3.9015    0.7803   -0.0000 C   0  0  0  0  0  0  0  0  0  0  0  0
   -2.6365    4.5281   -0.0000 C   0  0  0  0  0  0  0  0  0  0  0  0
   -3.9133    2.2936   -0.0000 C   0  0  0  0  0  0  0  0  0  0  0  0
   -0.0355    4.5281   -0.0000 C   0  0  0  0  0  0  0  0  0  0  0  0
   -5.2020    0.0473   -0.0000 C   0  0  0  0  0  0  0  0  0  0  0  0
   -1.3596    5.2965   -0.0000 C   0  0  0  0  0  0  0  0  0  0  0  0
   -5.2138    3.0621   -0.0000 C   0  0  0  0  0  0  0  0  0  0  0  0
   -3.9369    3.7951   -0.0000 C   0  0  0  0  0  0  0  0  0  0  0  0
    1.2414    5.2847   -0.0000 C   0  0  0  0  0  0  0  0  0  0  0  0
   -6.5025    0.8039   -0.0000 C   0  0  0  0  0  0  0  0  0  0  0  0
   -6.5143   -0.6857   -0.0000 C   0  0  0  0  0  0  0  0  0  0  0  0
   -4.4808   -1.2296   -0.0000 C   0  0  0  0  0  0  0  0  0  0  0  0
   -6.5143    2.3172   -0.0000 C   0  0  0  0  0  0  0  0  0  0  0  0
    2.5182    4.5517   -0.0000 C   0  0  0  0  0  0  0  0  0  0  0  0
    1.2296    6.7862   -0.0000 C   0  0  0  0  0  0  0  0  0  0  0  0
  1  2  2  0  0  0  0
  2  3  1  0  0  0  0
  2  4  1  0  0  0  0
  3  5  2  0  0  0  0
  3  6  1  0  0  0  0
  7  4  1  1  0  0  0
  5  8  1  0  0  0  0
  5  9  1  0  0  0  0
  6 10  2  0  0  0  0
  7 11  1  0  0  0  0
  8 12  2  0  0  0  0
  9 13  1  0  0  0  0
  9 14  1  1  0  0  0
 10 15  1  0  0  0  0
 11 16  1  0  0  0  0
 11 17  1  0  0  0  0
 11 18  1  0  0  0  0
 13 19  1  0  0  0  0
 15 20  1  0  0  0  0
 15 21  1  0  0  0  0
  7  9  1  0  0  0  0
 10 12  1  0  0  0  0
 16 19  1  0  0  0  0
M  END
>  <MolRegNo>
387455

>  <m>
=

>  <Value>
4000

>  <Unit>
nM

>  <Type>
EC50

>  <Ligand Efficiency>


>  <Binding Efficiency>


>  <Surface Efficiency>


>  <Assay Index>
294026

>  <Assay Category>


>  <Assay Organism>
SARS coronavirus

>  <Target ID>
100499

>  <Target Name>
SARS coronavirus

>  <Target Organism>
SARS coronavirus

>  <Target Description>
Target is a complete organism

>  <Sequence Accession>


>  <Reference>
J. Med. Chem. 50 (17), 4087-4095 (2007)

>  <Pubmed ID>
17663539

>  <DOI>
10.1021/jm070295s

>  <InChI-Key>
ISHVJVXYPLFKAL-UYAOXDASSA-N

>  <Molecular Formula>
C20H28O

>  <Monoisotopic Mass>
284.214015

>  <Druglikeness>
-4.6425

$$$$
Compound 271
Actelion Java MolfileCreator 1.0

 21 23  0  0  0  0  0  0  0  0999 V2000
    0.0000   -0.0000   -0.0000 O   0  0  0  0  0  0  0  0  0  0  0  0
   -1.3005    0.7566   -0.0000 C   0  0  0  0  0  0  0  0  0  0  0  0
   -1.3123    2.2581   -0.0000 C   0  0  0  0  0  0  0  0  0  0  0  0
   -2.6010    0.0236   -0.0000 C   0  0  0  0  0  0  0  0  0  0  0  0
   -2.6246    3.0266   -0.0000 C   0  0  0  0  0  0  0  0  0  0  0  0
   -0.0236    3.0148   -0.0000 C   0  0  0  0  0  0  0  0  0  0  0  0
   -3.9015    0.7803   -0.0000 C   0  0  0  0  0  0  0  0  0  0  0  0
   -2.6365    4.5281   -0.0000 C   0  0  0  0  0  0  0  0  0  0  0  0
   -3.9133    2.2936   -0.0000 C   0  0  0  0  0  0  0  0  0  0  0  0
   -0.0355    4.5281   -0.0000 C   0  0  0  0  0  0  0  0  0  0  0  0
   -5.2020    0.0473   -0.0000 C   0  0  0  0  0  0  0  0  0  0  0  0
   -1.3596    5.2965   -0.0000 C   0  0  0  0  0  0  0  0  0  0  0  0
   -5.2138    3.0621   -0.0000 C   0  0  0  0  0  0  0  0  0  0  0  0
   -3.9369    3.7951   -0.0000 C   0  0  0  0  0  0  0  0  0  0  0  0
    1.2414    5.2847   -0.0000 C   0  0  0  0  0  0  0  0  0  0  0  0
   -6.5025    0.8039   -0.0000 C   0  0  0  0  0  0  0  0  0  0  0  0
   -6.5143   -0.6857   -0.0000 C   0  0  0  0  0  0  0  0  0  0  0  0
   -4.4808   -1.2296   -0.0000 C   0  0  0  0  0  0  0  0  0  0  0  0
   -6.5143    2.3172   -0.0000 C   0  0  0  0  0  0  0  0  0  0  0  0
    2.5182    4.5517   -0.0000 C   0  0  0  0  0  0  0  0  0  0  0  0
    1.2296    6.7862   -0.0000 C   0  0  0  0  0  0  0  0  0  0  0  0
  1  2  2  0  0  0  0
  2  3  1  0  0  0  0
  2  4  1  0  0  0  0
  3  5  2  0  0  0  0
  3  6  1  0  0  0  0
  7  4  1  1  0  0  0
  5  8  1  0  0  0  0
  5  9  1  0  0  0  0
  6 10  2  0  0  0  0
  7 11  1  0  0  0  0
  8 12  2  0  0  0  0
  9 13  1  0  0  0  0
  9 14  1  1  0  0  0
 10 15  1  0  0  0  0
 11 16  1  0  0  0  0
 11 17  1  0  0  0  0
 11 18  1  0  0  0  0
 13 19  1  0  0  0  0
 15 20  1  0  0  0  0
 15 21  1  0  0  0  0
  7  9  1  0  0  0  0
 10 12  1  0  0  0  0
 16 19  1  0  0  0  0
M  END
>  <MolRegNo>
387455

>  <m>
<

>  <Value>
25

>  <Unit>
%

>  <Type>
Inhibition

>  <Ligand Efficiency>


>  <Binding Efficiency>


>  <Surface Efficiency>


>  <Assay Index>
294022

>  <Assay Category>


>  <Assay Organism>
SARS coronavirus

>  <Target ID>
100499

>  <Target Name>
SARS coronavirus

>  <Target Organism>
SARS coronavirus

>  <Target Description>
Target is a complete organism

>  <Sequence Accession>


>  <Reference>
J. Med. Chem. 50 (17), 4087-4095 (2007)

>  <Pubmed ID>
17663539

>  <DOI>
10.1021/jm070295s

>  <InChI-Key>
ISHVJVXYPLFKAL-UYAOXDASSA-N

>  <Molecular Formula>
C20H28O

>  <Monoisotopic Mass>
284.214015

>  <Druglikeness>
-4.6425

$$$$
Compound 272
Actelion Java MolfileCreator 1.0

 21 23  0  0  0  0  0  0  0  0999 V2000
    0.0000   -0.0000   -0.0000 O   0  0  0  0  0  0  0  0  0  0  0  0
   -1.3005    0.7566   -0.0000 C   0  0  0  0  0  0  0  0  0  0  0  0
   -1.3123    2.2581   -0.0000 C   0  0  0  0  0  0  0  0  0  0  0  0
   -2.6010    0.0236   -0.0000 C   0  0  0  0  0  0  0  0  0  0  0  0
   -2.6246    3.0266   -0.0000 C   0  0  0  0  0  0  0  0  0  0  0  0
   -0.0236    3.0148   -0.0000 C   0  0  0  0  0  0  0  0  0  0  0  0
   -3.9015    0.7803   -0.0000 C   0  0  0  0  0  0  0  0  0  0  0  0
   -2.6365    4.5281   -0.0000 C   0  0  0  0  0  0  0  0  0  0  0  0
   -3.9133    2.2936   -0.0000 C   0  0  0  0  0  0  0  0  0  0  0  0
   -0.0355    4.5281   -0.0000 C   0  0  0  0  0  0  0  0  0  0  0  0
   -5.2020    0.0473   -0.0000 C   0  0  0  0  0  0  0  0  0  0  0  0
   -1.3596    5.2965   -0.0000 C   0  0  0  0  0  0  0  0  0  0  0  0
   -5.2138    3.0621   -0.0000 C   0  0  0  0  0  0  0  0  0  0  0  0
   -3.9369    3.7951   -0.0000 C   0  0  0  0  0  0  0  0  0  0  0  0
    1.2414    5.2847   -0.0000 C   0  0  0  0  0  0  0  0  0  0  0  0
   -6.5025    0.8039   -0.0000 C   0  0  0  0  0  0  0  0  0  0  0  0
   -6.5143   -0.6857   -0.0000 C   0  0  0  0  0  0  0  0  0  0  0  0
   -4.4808   -1.2296   -0.0000 C   0  0  0  0  0  0  0  0  0  0  0  0
   -6.5143    2.3172   -0.0000 C   0  0  0  0  0  0  0  0  0  0  0  0
    2.5182    4.5517   -0.0000 C   0  0  0  0  0  0  0  0  0  0  0  0
    1.2296    6.7862   -0.0000 C   0  0  0  0  0  0  0  0  0  0  0  0
  1  2  2  0  0  0  0
  2  3  1  0  0  0  0
  2  4  1  0  0  0  0
  3  5  2  0  0  0  0
  3  6  1  0  0  0  0
  7  4  1  1  0  0  0
  5  8  1  0  0  0  0
  5  9  1  0  0  0  0
  6 10  2  0  0  0  0
  7 11  1  0  0  0  0
  8 12  2  0  0  0  0
  9 13  1  0  0  0  0
  9 14  1  1  0  0  0
 10 15  1  0  0  0  0
 11 16  1  0  0  0  0
 11 17  1  0  0  0  0
 11 18  1  0  0  0  0
 13 19  1  0  0  0  0
 15 20  1  0  0  0  0
 15 21  1  0  0  0  0
  7  9  1  0  0  0  0
 10 12  1  0  0  0  0
 16 19  1  0  0  0  0
M  END
>  <MolRegNo>
387455

>  <m>
<

>  <Value>
25

>  <Unit>
%

>  <Type>
Inhibition

>  <Ligand Efficiency>


>  <Binding Efficiency>


>  <Surface Efficiency>


>  <Assay Index>
294023

>  <Assay Category>


>  <Assay Organism>
SARS coronavirus

>  <Target ID>
100499

>  <Target Name>
SARS coronavirus

>  <Target Organism>
SARS coronavirus

>  <Target Description>
Target is a complete organism

>  <Sequence Accession>


>  <Reference>
J. Med. Chem. 50 (17), 4087-4095 (2007)

>  <Pubmed ID>
17663539

>  <DOI>
10.1021/jm070295s

>  <InChI-Key>
ISHVJVXYPLFKAL-UYAOXDASSA-N

>  <Molecular Formula>
C20H28O

>  <Monoisotopic Mass>
284.214015

>  <Druglikeness>
-4.6425

$$$$
Compound 273
Actelion Java MolfileCreator 1.0

 21 23  0  0  0  0  0  0  0  0999 V2000
    0.0000   -0.0000   -0.0000 O   0  0  0  0  0  0  0  0  0  0  0  0
   -1.3005    0.7566   -0.0000 C   0  0  0  0  0  0  0  0  0  0  0  0
   -1.3123    2.2581   -0.0000 C   0  0  0  0  0  0  0  0  0  0  0  0
   -2.6010    0.0236   -0.0000 C   0  0  0  0  0  0  0  0  0  0  0  0
   -2.6246    3.0266   -0.0000 C   0  0  0  0  0  0  0  0  0  0  0  0
   -0.0236    3.0148   -0.0000 C   0  0  0  0  0  0  0  0  0  0  0  0
   -3.9015    0.7803   -0.0000 C   0  0  0  0  0  0  0  0  0  0  0  0
   -2.6365    4.5281   -0.0000 C   0  0  0  0  0  0  0  0  0  0  0  0
   -3.9133    2.2936   -0.0000 C   0  0  0  0  0  0  0  0  0  0  0  0
   -0.0355    4.5281   -0.0000 C   0  0  0  0  0  0  0  0  0  0  0  0
   -5.2020    0.0473   -0.0000 C   0  0  0  0  0  0  0  0  0  0  0  0
   -1.3596    5.2965   -0.0000 C   0  0  0  0  0  0  0  0  0  0  0  0
   -5.2138    3.0621   -0.0000 C   0  0  0  0  0  0  0  0  0  0  0  0
   -3.9369    3.7951   -0.0000 C   0  0  0  0  0  0  0  0  0  0  0  0
    1.2414    5.2847   -0.0000 C   0  0  0  0  0  0  0  0  0  0  0  0
   -6.5025    0.8039   -0.0000 C   0  0  0  0  0  0  0  0  0  0  0  0
   -6.5143   -0.6857   -0.0000 C   0  0  0  0  0  0  0  0  0  0  0  0
   -4.4808   -1.2296   -0.0000 C   0  0  0  0  0  0  0  0  0  0  0  0
   -6.5143    2.3172   -0.0000 C   0  0  0  0  0  0  0  0  0  0  0  0
    2.5182    4.5517   -0.0000 C   0  0  0  0  0  0  0  0  0  0  0  0
    1.2296    6.7862   -0.0000 C   0  0  0  0  0  0  0  0  0  0  0  0
  1  2  2  0  0  0  0
  2  3  1  0  0  0  0
  2  4  1  0  0  0  0
  3  5  2  0  0  0  0
  3  6  1  0  0  0  0
  7  4  1  1  0  0  0
  5  8  1  0  0  0  0
  5  9  1  0  0  0  0
  6 10  2  0  0  0  0
  7 11  1  0  0  0  0
  8 12  2  0  0  0  0
  9 13  1  0  0  0  0
  9 14  1  1  0  0  0
 10 15  1  0  0  0  0
 11 16  1  0  0  0  0
 11 17  1  0  0  0  0
 11 18  1  0  0  0  0
 13 19  1  0  0  0  0
 15 20  1  0  0  0  0
 15 21  1  0  0  0  0
  7  9  1  0  0  0  0
 10 12  1  0  0  0  0
 16 19  1  0  0  0  0
M  END
>  <MolRegNo>
387455

>  <m>


>  <Value>
0

>  <Unit>


>  <Type>
Inhibition

>  <Ligand Efficiency>


>  <Binding Efficiency>


>  <Surface Efficiency>


>  <Assay Index>
294024

>  <Assay Category>


>  <Assay Organism>
SARS coronavirus

>  <Target ID>
100499

>  <Target Name>
SARS coronavirus

>  <Target Organism>
SARS coronavirus

>  <Target Description>
Target is a complete organism

>  <Sequence Accession>


>  <Reference>
J. Med. Chem. 50 (17), 4087-4095 (2007)

>  <Pubmed ID>
17663539

>  <DOI>
10.1021/jm070295s

>  <InChI-Key>
ISHVJVXYPLFKAL-UYAOXDASSA-N

>  <Molecular Formula>
C20H28O

>  <Monoisotopic Mass>
284.214015

>  <Druglikeness>
-4.6425

$$$$
Compound 274
Actelion Java MolfileCreator 1.0

 21 23  0  0  0  0  0  0  0  0999 V2000
    0.0000   -0.0000   -0.0000 O   0  0  0  0  0  0  0  0  0  0  0  0
   -1.3005    0.7566   -0.0000 C   0  0  0  0  0  0  0  0  0  0  0  0
   -1.3123    2.2581   -0.0000 C   0  0  0  0  0  0  0  0  0  0  0  0
   -2.6010    0.0236   -0.0000 C   0  0  0  0  0  0  0  0  0  0  0  0
   -2.6246    3.0266   -0.0000 C   0  0  0  0  0  0  0  0  0  0  0  0
   -0.0236    3.0148   -0.0000 C   0  0  0  0  0  0  0  0  0  0  0  0
   -3.9015    0.7803   -0.0000 C   0  0  0  0  0  0  0  0  0  0  0  0
   -2.6365    4.5281   -0.0000 C   0  0  0  0  0  0  0  0  0  0  0  0
   -3.9133    2.2936   -0.0000 C   0  0  0  0  0  0  0  0  0  0  0  0
   -0.0355    4.5281   -0.0000 C   0  0  0  0  0  0  0  0  0  0  0  0
   -5.2020    0.0473   -0.0000 C   0  0  0  0  0  0  0  0  0  0  0  0
   -1.3596    5.2965   -0.0000 C   0  0  0  0  0  0  0  0  0  0  0  0
   -5.2138    3.0621   -0.0000 C   0  0  0  0  0  0  0  0  0  0  0  0
   -3.9369    3.7951   -0.0000 C   0  0  0  0  0  0  0  0  0  0  0  0
    1.2414    5.2847   -0.0000 C   0  0  0  0  0  0  0  0  0  0  0  0
   -6.5025    0.8039   -0.0000 C   0  0  0  0  0  0  0  0  0  0  0  0
   -6.5143   -0.6857   -0.0000 C   0  0  0  0  0  0  0  0  0  0  0  0
   -4.4808   -1.2296   -0.0000 C   0  0  0  0  0  0  0  0  0  0  0  0
   -6.5143    2.3172   -0.0000 C   0  0  0  0  0  0  0  0  0  0  0  0
    2.5182    4.5517   -0.0000 C   0  0  0  0  0  0  0  0  0  0  0  0
    1.2296    6.7862   -0.0000 C   0  0  0  0  0  0  0  0  0  0  0  0
  1  2  2  0  0  0  0
  2  3  1  0  0  0  0
  2  4  1  0  0  0  0
  3  5  2  0  0  0  0
  3  6  1  0  0  0  0
  7  4  1  1  0  0  0
  5  8  1  0  0  0  0
  5  9  1  0  0  0  0
  6 10  2  0  0  0  0
  7 11  1  0  0  0  0
  8 12  2  0  0  0  0
  9 13  1  0  0  0  0
  9 14  1  1  0  0  0
 10 15  1  0  0  0  0
 11 16  1  0  0  0  0
 11 17  1  0  0  0  0
 11 18  1  0  0  0  0
 13 19  1  0  0  0  0
 15 20  1  0  0  0  0
 15 21  1  0  0  0  0
  7  9  1  0  0  0  0
 10 12  1  0  0  0  0
 16 19  1  0  0  0  0
M  END
>  <MolRegNo>
387455

>  <m>


>  <Value>
0

>  <Unit>


>  <Type>
Inhibition

>  <Ligand Efficiency>


>  <Binding Efficiency>


>  <Surface Efficiency>


>  <Assay Index>
294025

>  <Assay Category>


>  <Assay Organism>
SARS coronavirus

>  <Target ID>
100499

>  <Target Name>
SARS coronavirus

>  <Target Organism>
SARS coronavirus

>  <Target Description>
Target is a complete organism

>  <Sequence Accession>


>  <Reference>
J. Med. Chem. 50 (17), 4087-4095 (2007)

>  <Pubmed ID>
17663539

>  <DOI>
10.1021/jm070295s

>  <InChI-Key>
ISHVJVXYPLFKAL-UYAOXDASSA-N

>  <Molecular Formula>
C20H28O

>  <Monoisotopic Mass>
284.214015

>  <Druglikeness>
-4.6425

$$$$
Compound 275
Actelion Java MolfileCreator 1.0

 31 35  0  0  0  0  0  0  0  0999 V2000
    0.0000   -0.0000   -0.0000 O   0  0  0  0  0  0  0  0  0  0  0  0
    1.2914   -0.7345   -0.0000 C   0  0  0  0  0  0  0  0  0  0  0  0
    1.2795   -2.2273   -0.0000 N   0  0  0  0  0  0  0  0  0  0  0  0
    2.5827    0.0237   -0.0000 C   0  0  0  0  0  0  0  0  0  0  0  0
   -0.0355   -2.9618   -0.0000 C   0  0  0  0  0  0  0  0  0  0  0  0
    2.5709    1.5402   -0.0000 C   0  0  0  0  0  0  0  0  0  0  0  0
    3.8741   -0.7108   -0.0000 C   0  0  0  0  0  0  0  0  0  0  0  0
   -0.0474   -4.4546   -0.0000 C   0  0  0  0  0  0  0  0  0  0  0  0
    3.8622    2.2984   -0.0000 C   0  0  0  0  0  0  0  0  0  0  0  0
    5.1655    0.0474   -0.0000 C   0  0  0  0  0  0  0  0  0  0  0  0
    1.2440   -5.2010   -0.0000 C   0  0  0  0  0  0  0  0  0  0  0  0
   -1.3624   -5.2010   -0.0000 C   0  0  0  0  0  0  0  0  0  0  0  0
    5.1536    1.5639   -0.0000 N   0  0  0  0  0  0  0  0  0  0  0  0
    1.2321   -6.6938   -0.0000 C   0  0  0  0  0  0  0  0  0  0  0  0
   -1.3743   -6.6938   -0.0000 C   0  0  0  0  0  0  0  0  0  0  0  0
    6.4450    2.3221   -0.0000 C   0  0  0  0  0  0  0  0  0  0  0  0
    2.3339   -7.6889   -0.0000 O   0  0  0  0  0  0  0  0  0  0  0  0
   -0.0829   -7.4283   -0.0000 C   0  0  0  0  0  0  0  0  0  0  0  0
    6.4331    3.8386   -0.0000 C   0  0  0  0  0  0  0  0  0  0  0  0
    7.7363    1.5875   -0.0000 C   0  0  0  0  0  0  0  0  0  0  0  0
    1.7060   -9.0514   -0.0000 C   0  0  0  0  0  0  0  0  0  0  0  0
    0.2133   -8.8855   -0.0000 O   0  0  0  0  0  0  0  0  0  0  0  0
    7.7245    4.5968   -0.0000 C   0  0  0  0  0  0  0  0  0  0  0  0
    5.1181    4.5968   -0.0000 C   0  0  0  0  0  0  0  0  0  0  0  0
    7.7126    6.1132   -0.0000 C   0  0  0  0  0  0  0  0  0  0  0  0
    9.0159    3.8622   -0.0000 C   0  0  0  0  0  0  0  0  0  0  0  0
    5.1062    6.1132   -0.0000 C   0  0  0  0  0  0  0  0  0  0  0  0
    6.3976    6.8833   -0.0000 C   0  0  0  0  0  0  0  0  0  0  0  0
    9.0040    6.8833   -0.0000 C   0  0  0  0  0  0  0  0  0  0  0  0
   10.3072    4.6205   -0.0000 C   0  0  0  0  0  0  0  0  0  0  0  0
   10.2954    6.1369   -0.0000 C   0  0  0  0  0  0  0  0  0  0  0  0
  1  2  2  0  0  0  0
  2  3  1  0  0  0  0
  2  4  1  0  0  0  0
  3  5  1  0  0  0  0
  4  6  1  0  0  0  0
  4  7  1  0  0  0  0
  5  8  1  0  0  0  0
  6  9  1  0  0  0  0
  7 10  1  0  0  0  0
  8 11  2  0  0  0  0
  8 12  1  0  0  0  0
  9 13  1  0  0  0  0
 11 14  1  0  0  0  0
 12 15  2  0  0  0  0
 16 13  1  6  0  0  0
 14 17  1  0  0  0  0
 14 18  2  0  0  0  0
 16 19  1  0  0  0  0
 16 20  1  0  0  0  0
 17 21  1  0  0  0  0
 18 22  1  0  0  0  0
 19 23  1  0  0  0  0
 19 24  2  0  0  0  0
 23 25  1  0  0  0  0
 23 26  2  0  0  0  0
 24 27  1  0  0  0  0
 25 28  1  0  0  0  0
 25 29  2  0  0  0  0
 26 30  1  0  0  0  0
 29 31  1  0  0  0  0
 10 13  1  0  0  0  0
 15 18  1  0  0  0  0
 21 22  1  0  0  0  0
 27 28  2  0  0  0  0
 30 31  2  0  0  0  0
M  END
>  <MolRegNo>
650788

>  <m>
=

>  <Value>
12800

>  <Unit>
nM

>  <Type>
EC50

>  <Ligand Efficiency>


>  <Binding Efficiency>


>  <Surface Efficiency>


>  <Assay Index>
843084

>  <Assay Category>


>  <Assay Organism>
SARS coronavirus

>  <Target ID>
100499

>  <Target Name>
SARS coronavirus

>  <Target Organism>
SARS coronavirus

>  <Target Description>
Target is a complete organism

>  <Sequence Accession>


>  <Reference>
J. Med. Chem. 57 (6), 2393-2412 (2014)

>  <Pubmed ID>
24568342

>  <DOI>
10.1021/jm401712t

>  <InChI-Key>
IVXBCFLWMPMSAP-SFHVURJKSA-N

>  <Molecular Formula>
C26H28N2O3

>  <Monoisotopic Mass>
416.209993

>  <Druglikeness>
6.6644

$$$$
Compound 276
Actelion Java MolfileCreator 1.0

 31 35  0  0  0  0  0  0  0  0999 V2000
    0.0000   -0.0000   -0.0000 O   0  0  0  0  0  0  0  0  0  0  0  0
    1.2914   -0.7345   -0.0000 C   0  0  0  0  0  0  0  0  0  0  0  0
    1.2795   -2.2273   -0.0000 N   0  0  0  0  0  0  0  0  0  0  0  0
    2.5827    0.0237   -0.0000 C   0  0  0  0  0  0  0  0  0  0  0  0
   -0.0355   -2.9618   -0.0000 C   0  0  0  0  0  0  0  0  0  0  0  0
    2.5709    1.5402   -0.0000 C   0  0  0  0  0  0  0  0  0  0  0  0
    3.8741   -0.7108   -0.0000 C   0  0  0  0  0  0  0  0  0  0  0  0
   -0.0474   -4.4546   -0.0000 C   0  0  0  0  0  0  0  0  0  0  0  0
    3.8622    2.2984   -0.0000 C   0  0  0  0  0  0  0  0  0  0  0  0
    5.1655    0.0474   -0.0000 C   0  0  0  0  0  0  0  0  0  0  0  0
    1.2440   -5.2010   -0.0000 C   0  0  0  0  0  0  0  0  0  0  0  0
   -1.3624   -5.2010   -0.0000 C   0  0  0  0  0  0  0  0  0  0  0  0
    5.1536    1.5639   -0.0000 N   0  0  0  0  0  0  0  0  0  0  0  0
    1.2321   -6.6938   -0.0000 C   0  0  0  0  0  0  0  0  0  0  0  0
   -1.3743   -6.6938   -0.0000 C   0  0  0  0  0  0  0  0  0  0  0  0
    6.4450    2.3221   -0.0000 C   0  0  0  0  0  0  0  0  0  0  0  0
    2.3339   -7.6889   -0.0000 O   0  0  0  0  0  0  0  0  0  0  0  0
   -0.0829   -7.4283   -0.0000 C   0  0  0  0  0  0  0  0  0  0  0  0
    6.4331    3.8386   -0.0000 C   0  0  0  0  0  0  0  0  0  0  0  0
    7.7363    1.5875   -0.0000 C   0  0  0  0  0  0  0  0  0  0  0  0
    1.7060   -9.0514   -0.0000 C   0  0  0  0  0  0  0  0  0  0  0  0
    0.2133   -8.8855   -0.0000 O   0  0  0  0  0  0  0  0  0  0  0  0
    7.7245    4.5968   -0.0000 C   0  0  0  0  0  0  0  0  0  0  0  0
    5.1181    4.5968   -0.0000 C   0  0  0  0  0  0  0  0  0  0  0  0
    7.7126    6.1132   -0.0000 C   0  0  0  0  0  0  0  0  0  0  0  0
    9.0159    3.8622   -0.0000 C   0  0  0  0  0  0  0  0  0  0  0  0
    5.1062    6.1132   -0.0000 C   0  0  0  0  0  0  0  0  0  0  0  0
    6.3976    6.8833   -0.0000 C   0  0  0  0  0  0  0  0  0  0  0  0
    9.0040    6.8833   -0.0000 C   0  0  0  0  0  0  0  0  0  0  0  0
   10.3072    4.6205   -0.0000 C   0  0  0  0  0  0  0  0  0  0  0  0
   10.2954    6.1369   -0.0000 C   0  0  0  0  0  0  0  0  0  0  0  0
  1  2  2  0  0  0  0
  2  3  1  0  0  0  0
  2  4  1  0  0  0  0
  3  5  1  0  0  0  0
  4  6  1  0  0  0  0
  4  7  1  0  0  0  0
  5  8  1  0  0  0  0
  6  9  1  0  0  0  0
  7 10  1  0  0  0  0
  8 11  2  0  0  0  0
  8 12  1  0  0  0  0
  9 13  1  0  0  0  0
 11 14  1  0  0  0  0
 12 15  2  0  0  0  0
 16 13  1  6  0  0  0
 14 17  1  0  0  0  0
 14 18  2  0  0  0  0
 16 19  1  0  0  0  0
 16 20  1  0  0  0  0
 17 21  1  0  0  0  0
 18 22  1  0  0  0  0
 19 23  1  0  0  0  0
 19 24  2  0  0  0  0
 23 25  1  0  0  0  0
 23 26  2  0  0  0  0
 24 27  1  0  0  0  0
 25 28  1  0  0  0  0
 25 29  2  0  0  0  0
 26 30  1  0  0  0  0
 29 31  1  0  0  0  0
 10 13  1  0  0  0  0
 15 18  1  0  0  0  0
 21 22  1  0  0  0  0
 27 28  2  0  0  0  0
 30 31  2  0  0  0  0
M  END
>  <MolRegNo>
650788

>  <m>
=

>  <Value>
9100

>  <Unit>
nM

>  <Type>
EC50

>  <Ligand Efficiency>


>  <Binding Efficiency>


>  <Surface Efficiency>


>  <Assay Index>
486973

>  <Assay Category>


>  <Assay Organism>
SARS coronavirus

>  <Target ID>
100499

>  <Target Name>
SARS coronavirus

>  <Target Organism>
SARS coronavirus

>  <Target Description>
Target is a complete organism

>  <Sequence Accession>


>  <Reference>
J. Med. Chem. 53 (13), 4968-4979 (2010)

>  <Pubmed ID>
20527968

>  <DOI>
10.1021/jm1004489

>  <InChI-Key>
IVXBCFLWMPMSAP-SFHVURJKSA-N

>  <Molecular Formula>
C26H28N2O3

>  <Monoisotopic Mass>
416.209993

>  <Druglikeness>
6.6644

$$$$
Compound 277
Actelion Java MolfileCreator 1.0

 31 35  0  0  0  0  0  0  0  0999 V2000
    0.0000   -0.0000   -0.0000 O   0  0  0  0  0  0  0  0  0  0  0  0
    1.2914   -0.7345   -0.0000 C   0  0  0  0  0  0  0  0  0  0  0  0
    1.2795   -2.2273   -0.0000 N   0  0  0  0  0  0  0  0  0  0  0  0
    2.5827    0.0237   -0.0000 C   0  0  0  0  0  0  0  0  0  0  0  0
   -0.0355   -2.9618   -0.0000 C   0  0  0  0  0  0  0  0  0  0  0  0
    2.5709    1.5402   -0.0000 C   0  0  0  0  0  0  0  0  0  0  0  0
    3.8741   -0.7108   -0.0000 C   0  0  0  0  0  0  0  0  0  0  0  0
   -0.0474   -4.4546   -0.0000 C   0  0  0  0  0  0  0  0  0  0  0  0
    3.8622    2.2984   -0.0000 C   0  0  0  0  0  0  0  0  0  0  0  0
    5.1655    0.0474   -0.0000 C   0  0  0  0  0  0  0  0  0  0  0  0
    1.2440   -5.2010   -0.0000 C   0  0  0  0  0  0  0  0  0  0  0  0
   -1.3624   -5.2010   -0.0000 C   0  0  0  0  0  0  0  0  0  0  0  0
    5.1536    1.5639   -0.0000 N   0  0  0  0  0  0  0  0  0  0  0  0
    1.2321   -6.6938   -0.0000 C   0  0  0  0  0  0  0  0  0  0  0  0
   -1.3743   -6.6938   -0.0000 C   0  0  0  0  0  0  0  0  0  0  0  0
    6.4450    2.3221   -0.0000 C   0  0  0  0  0  0  0  0  0  0  0  0
    2.3339   -7.6889   -0.0000 O   0  0  0  0  0  0  0  0  0  0  0  0
   -0.0829   -7.4283   -0.0000 C   0  0  0  0  0  0  0  0  0  0  0  0
    6.4331    3.8386   -0.0000 C   0  0  0  0  0  0  0  0  0  0  0  0
    7.7363    1.5875   -0.0000 C   0  0  0  0  0  0  0  0  0  0  0  0
    1.7060   -9.0514   -0.0000 C   0  0  0  0  0  0  0  0  0  0  0  0
    0.2133   -8.8855   -0.0000 O   0  0  0  0  0  0  0  0  0  0  0  0
    7.7245    4.5968   -0.0000 C   0  0  0  0  0  0  0  0  0  0  0  0
    5.1181    4.5968   -0.0000 C   0  0  0  0  0  0  0  0  0  0  0  0
    7.7126    6.1132   -0.0000 C   0  0  0  0  0  0  0  0  0  0  0  0
    9.0159    3.8622   -0.0000 C   0  0  0  0  0  0  0  0  0  0  0  0
    5.1062    6.1132   -0.0000 C   0  0  0  0  0  0  0  0  0  0  0  0
    6.3976    6.8833   -0.0000 C   0  0  0  0  0  0  0  0  0  0  0  0
    9.0040    6.8833   -0.0000 C   0  0  0  0  0  0  0  0  0  0  0  0
   10.3072    4.6205   -0.0000 C   0  0  0  0  0  0  0  0  0  0  0  0
   10.2954    6.1369   -0.0000 C   0  0  0  0  0  0  0  0  0  0  0  0
  1  2  2  0  0  0  0
  2  3  1  0  0  0  0
  2  4  1  0  0  0  0
  3  5  1  0  0  0  0
  4  6  1  0  0  0  0
  4  7  1  0  0  0  0
  5  8  1  0  0  0  0
  6  9  1  0  0  0  0
  7 10  1  0  0  0  0
  8 11  2  0  0  0  0
  8 12  1  0  0  0  0
  9 13  1  0  0  0  0
 11 14  1  0  0  0  0
 12 15  2  0  0  0  0
 16 13  1  6  0  0  0
 14 17  1  0  0  0  0
 14 18  2  0  0  0  0
 16 19  1  0  0  0  0
 16 20  1  0  0  0  0
 17 21  1  0  0  0  0
 18 22  1  0  0  0  0
 19 23  1  0  0  0  0
 19 24  2  0  0  0  0
 23 25  1  0  0  0  0
 23 26  2  0  0  0  0
 24 27  1  0  0  0  0
 25 28  1  0  0  0  0
 25 29  2  0  0  0  0
 26 30  1  0  0  0  0
 29 31  1  0  0  0  0
 10 13  1  0  0  0  0
 15 18  1  0  0  0  0
 21 22  1  0  0  0  0
 27 28  2  0  0  0  0
 30 31  2  0  0  0  0
M  END
>  <MolRegNo>
650789

>  <m>
=

>  <Value>
9100

>  <Unit>
nM

>  <Type>
EC50

>  <Ligand Efficiency>


>  <Binding Efficiency>


>  <Surface Efficiency>


>  <Assay Index>
486973

>  <Assay Category>


>  <Assay Organism>
SARS coronavirus

>  <Target ID>
100499

>  <Target Name>
SARS coronavirus

>  <Target Organism>
SARS coronavirus

>  <Target Description>
Target is a complete organism

>  <Sequence Accession>


>  <Reference>
J. Med. Chem. 53 (13), 4968-4979 (2010)

>  <Pubmed ID>
20527968

>  <DOI>
10.1021/jm1004489

>  <InChI-Key>
IVXBCFLWMPMSAP-SFHVURJKSA-N

>  <Molecular Formula>
C26H28N2O3

>  <Monoisotopic Mass>
416.209993

>  <Druglikeness>
6.6644

$$$$
Compound 278
Actelion Java MolfileCreator 1.0

 24 26  0  0  0  0  0  0  0  0999 V2000
    0.0000   -0.0000   -0.0000 I   0  0  0  0  0  0  0  0  0  0  0  0
    1.2933   -0.7594   -0.0000 C   0  0  0  0  0  0  0  0  0  0  0  0
    2.5867    0.0237   -0.0000 C   0  0  0  0  0  0  0  0  0  0  0  0
    1.2815   -2.2544   -0.0000 C   0  0  0  0  0  0  0  0  0  0  0  0
    3.8800   -0.7119   -0.0000 C   0  0  0  0  0  0  0  0  0  0  0  0
    2.5748   -3.0020   -0.0000 C   0  0  0  0  0  0  0  0  0  0  0  0
    5.3039   -0.2373   -0.0000 C   0  0  0  0  0  0  0  0  0  0  0  0
    3.8681   -2.2070   -0.0000 C   0  0  0  0  0  0  0  0  0  0  0  0
    5.7547    1.2103   -0.0000 O   0  0  0  0  0  0  0  0  0  0  0  0
    6.1819   -1.4476   -0.0000 C   0  0  0  0  0  0  0  0  0  0  0  0
    5.2920   -2.6697   -0.0000 N   0  0  0  0  0  0  0  0  0  0  0  0
    7.6769   -1.4357   -0.0000 O   0  0  0  0  0  0  0  0  0  0  0  0
    5.7429   -4.0936   -0.0000 C   0  0  0  0  0  0  0  0  0  0  0  0
    7.2023   -4.3902   -0.0000 C   0  0  0  0  0  0  0  0  0  0  0  0
    8.2940   -3.3698   -0.0000 S   0  0  0  0  0  0  0  0  0  0  0  0
    7.7956   -5.7429   -0.0000 C   0  0  0  0  0  0  0  0  0  0  0  0
    9.5992   -4.1173   -0.0000 C   0  0  0  0  0  0  0  0  0  0  0  0
    9.2907   -5.5768   -0.0000 C   0  0  0  0  0  0  0  0  0  0  0  0
   10.9637   -3.4884   -0.0000 C   0  0  0  0  0  0  0  0  0  0  0  0
   11.1061   -1.9697   -0.0000 O   0  0  0  0  0  0  0  0  0  0  0  0
   12.1621   -4.3546   -0.0000 N   0  0  0  0  0  0  0  0  0  0  0  0
   13.5385   -3.7376   -0.0000 C   0  0  0  0  0  0  0  0  0  0  0  0
   14.7488   -4.6038   -0.0000 C   0  0  0  0  0  0  0  0  0  0  0  0
   13.6690   -2.2188   -0.0000 C   0  0  0  0  0  0  0  0  0  0  0  0
  1  2  1  0  0  0  0
  2  3  2  0  0  0  0
  2  4  1  0  0  0  0
  3  5  1  0  0  0  0
  4  6  2  0  0  0  0
  5  7  1  0  0  0  0
  5  8  2  0  0  0  0
  7  9  2  0  0  0  0
  7 10  1  0  0  0  0
  8 11  1  0  0  0  0
 10 12  2  0  0  0  0
 11 13  1  0  0  0  0
 13 14  1  0  0  0  0
 14 15  1  0  0  0  0
 14 16  2  0  0  0  0
 15 17  1  0  0  0  0
 16 18  1  0  0  0  0
 17 19  1  0  0  0  0
 19 20  2  0  0  0  0
 19 21  1  0  0  0  0
 21 22  1  0  0  0  0
 22 23  1  0  0  0  0
 22 24  1  0  0  0  0
  6  8  1  0  0  0  0
 10 11  1  0  0  0  0
 17 18  2  0  0  0  0
M  END
>  <MolRegNo>
317656

>  <m>
=

>  <Value>
47

>  <Unit>
%

>  <Type>
Inhibition

>  <Ligand Efficiency>


>  <Binding Efficiency>


>  <Surface Efficiency>


>  <Assay Index>
240686

>  <Assay Category>


>  <Assay Organism>
SARS coronavirus

>  <Target ID>
20012

>  <Target Name>
SARS coronavirus 3C-like proteinase

>  <Target Organism>
SARS coronavirus

>  <Target Description>
Target is a single protein chain

>  <Sequence Accession>
P0C6U8

>  <Reference>
Bioorg. Med. Chem. Lett. 15 (12), 3058-3062 (2005)

>  <Pubmed ID>
15896959

>  <DOI>
10.1016/j.bmcl.2005.04.027

>  <InChI-Key>
IWFUVCHFFMEFLM-UHFFFAOYSA-N

>  <Molecular Formula>
C17H15N2O3IS

>  <Monoisotopic Mass>
453.984811

>  <Druglikeness>
3.3813

$$$$
Compound 279
Actelion Java MolfileCreator 1.0

 17 18  0  0  0  0  0  0  0  0999 V2000
    0.0000   -0.0000   -0.0000 O   0  0  0  0  0  0  0  0  0  0  0  0
   -0.0235    1.5071   -0.0000 C   0  0  0  0  0  0  0  0  0  0  0  0
    1.2599    2.2725   -0.0000 N   0  0  0  0  0  0  0  0  0  0  0  0
   -1.3305    2.2607   -0.0000 C   0  0  0  0  0  0  0  0  0  0  0  0
   -2.5433    1.3894   -0.0000 N   0  0  0  0  0  0  0  0  0  0  0  0
   -1.8133    3.6854   -0.0000 N   0  0  0  0  0  0  0  0  0  0  0  0
   -3.7678    2.2725   -0.0000 N   0  0  0  0  0  0  0  0  0  0  0  0
   -3.3204    3.6854   -0.0000 C   0  0  0  0  0  0  0  0  0  0  0  0
   -5.1925    1.8133   -0.0000 C   0  0  0  0  0  0  0  0  0  0  0  0
   -6.4170    2.7081   -0.0000 O   0  0  0  0  0  0  0  0  0  0  0  0
   -5.6635    0.4003   -0.0000 C   0  0  0  0  0  0  0  0  0  0  0  0
   -7.6298    1.8368   -0.0000 C   0  0  0  0  0  0  0  0  0  0  0  0
   -4.7922   -0.8007   -0.0000 O   0  0  0  0  0  0  0  0  0  0  0  0
   -7.1706    0.4121   -0.0000 C   0  0  0  0  0  0  0  0  0  0  0  0
   -8.9250    2.6021   -0.0000 C   0  0  0  0  0  0  0  0  0  0  0  0
   -8.0655   -0.7889   -0.0000 O   0  0  0  0  0  0  0  0  0  0  0  0
   -8.9250    4.1093   -0.0000 O   0  0  0  0  0  0  0  0  0  0  0  0
  1  2  2  0  0  0  0
  2  3  1  0  0  0  0
  2  4  1  0  0  0  0
  4  5  2  0  0  0  0
  4  6  1  0  0  0  0
  5  7  1  0  0  0  0
  6  8  2  0  0  0  0
  9  7  1  6  0  0  0
  9 10  1  0  0  0  0
  9 11  1  0  0  0  0
 10 12  1  0  0  0  0
 11 13  1  1  0  0  0
 11 14  1  0  0  0  0
 12 15  1  6  0  0  0
 14 16  1  1  0  0  0
 15 17  1  0  0  0  0
  7  8  1  0  0  0  0
 12 14  1  0  0  0  0
M  END
>  <MolRegNo>
485738

>  <m>
=

>  <Value>
82000

>  <Unit>
nM

>  <Type>
IC50

>  <Ligand Efficiency>


>  <Binding Efficiency>


>  <Surface Efficiency>


>  <Assay Index>
287336

>  <Assay Category>


>  <Assay Organism>
SARS coronavirus

>  <Target ID>
100499

>  <Target Name>
SARS coronavirus

>  <Target Organism>
SARS coronavirus

>  <Target Description>
Target is a complete organism

>  <Sequence Accession>


>  <Reference>
Bioorg. Med. Chem. Lett. 17 (9), 2470-2473 (2007)

>  <Pubmed ID>
17336519

>  <DOI>
10.1016/j.bmcl.2007.02.026

>  <InChI-Key>
IWUCXVSUMQZMFG-BWSHDJSZSA-N

>  <Molecular Formula>
C8H12N4O5

>  <Monoisotopic Mass>
244.080771

>  <Druglikeness>
1.724

$$$$
Compound 280
Actelion Java MolfileCreator 1.0

 17 18  0  0  0  0  0  0  0  0999 V2000
    0.0000   -0.0000   -0.0000 O   0  0  0  0  0  0  0  0  0  0  0  0
   -0.0235    1.5071   -0.0000 C   0  0  0  0  0  0  0  0  0  0  0  0
    1.2599    2.2725   -0.0000 N   0  0  0  0  0  0  0  0  0  0  0  0
   -1.3305    2.2607   -0.0000 C   0  0  0  0  0  0  0  0  0  0  0  0
   -2.5433    1.3894   -0.0000 N   0  0  0  0  0  0  0  0  0  0  0  0
   -1.8133    3.6854   -0.0000 N   0  0  0  0  0  0  0  0  0  0  0  0
   -3.7678    2.2725   -0.0000 N   0  0  0  0  0  0  0  0  0  0  0  0
   -3.3204    3.6854   -0.0000 C   0  0  0  0  0  0  0  0  0  0  0  0
   -5.1925    1.8133   -0.0000 C   0  0  0  0  0  0  0  0  0  0  0  0
   -6.4170    2.7081   -0.0000 O   0  0  0  0  0  0  0  0  0  0  0  0
   -5.6635    0.4003   -0.0000 C   0  0  0  0  0  0  0  0  0  0  0  0
   -7.6298    1.8368   -0.0000 C   0  0  0  0  0  0  0  0  0  0  0  0
   -4.7922   -0.8007   -0.0000 O   0  0  0  0  0  0  0  0  0  0  0  0
   -7.1706    0.4121   -0.0000 C   0  0  0  0  0  0  0  0  0  0  0  0
   -8.9250    2.6021   -0.0000 C   0  0  0  0  0  0  0  0  0  0  0  0
   -8.0655   -0.7889   -0.0000 O   0  0  0  0  0  0  0  0  0  0  0  0
   -8.9250    4.1093   -0.0000 O   0  0  0  0  0  0  0  0  0  0  0  0
  1  2  2  0  0  0  0
  2  3  1  0  0  0  0
  2  4  1  0  0  0  0
  4  5  2  0  0  0  0
  4  6  1  0  0  0  0
  5  7  1  0  0  0  0
  6  8  2  0  0  0  0
  9  7  1  6  0  0  0
  9 10  1  0  0  0  0
  9 11  1  0  0  0  0
 10 12  1  0  0  0  0
 11 13  1  1  0  0  0
 11 14  1  0  0  0  0
 12 15  1  6  0  0  0
 14 16  1  1  0  0  0
 15 17  1  0  0  0  0
  7  8  1  0  0  0  0
 12 14  1  0  0  0  0
M  END
>  <MolRegNo>
485738

>  <m>
=

>  <Value>
500

>  <Unit>
ug ml-1

>  <Type>
INH

>  <Ligand Efficiency>


>  <Binding Efficiency>


>  <Surface Efficiency>


>  <Assay Index>
952079

>  <Assay Category>


>  <Assay Organism>
SARS coronavirus

>  <Target ID>
100499

>  <Target Name>
SARS coronavirus

>  <Target Organism>
SARS coronavirus

>  <Target Description>
Target is a complete organism

>  <Sequence Accession>


>  <Reference>
Bioorg. Med. Chem. Lett. 25 (15), 2923-2926 (2015)

>  <Pubmed ID>
26048809

>  <DOI>
10.1016/j.bmcl.2015.05.039

>  <InChI-Key>
IWUCXVSUMQZMFG-BWSHDJSZSA-N

>  <Molecular Formula>
C8H12N4O5

>  <Monoisotopic Mass>
244.080771

>  <Druglikeness>
1.724

$$$$
Compound 281
Actelion Java MolfileCreator 1.0

 15 16  0  0  0  0  0  0  0  0999 V2000
    0.0000   -0.0000   -0.0000 Cl  0  0  0  0  0  0  0  0  0  0  0  0
   -0.0119   -1.4878   -0.0000 C   0  0  0  0  0  0  0  0  0  0  0  0
    1.2735   -2.2257   -0.0000 N   0  0  0  0  0  0  0  0  0  0  0  0
   -1.3211   -2.2257   -0.0000 C   0  0  0  0  0  0  0  0  0  0  0  0
    1.2616   -3.7254   -0.0000 C   0  0  0  0  0  0  0  0  0  0  0  0
   -2.6304   -1.4640   -0.0000 O   0  0  0  0  0  0  0  0  0  0  0  0
   -1.3330   -3.7135   -0.0000 C   0  0  0  0  0  0  0  0  0  0  0  0
   -0.0595   -4.4633   -0.0000 C   0  0  0  0  0  0  0  0  0  0  0  0
   -3.9396   -2.2019   -0.0000 C   0  0  0  0  0  0  0  0  0  0  0  0
   -3.9515   -3.6897   -0.0000 O   0  0  0  0  0  0  0  0  0  0  0  0
   -5.2489   -1.4402   -0.0000 C   0  0  0  0  0  0  0  0  0  0  0  0
   -6.6295   -2.0353   -0.0000 S   0  0  0  0  0  0  0  0  0  0  0  0
   -5.4155    0.0595   -0.0000 C   0  0  0  0  0  0  0  0  0  0  0  0
   -7.6412   -0.9046   -0.0000 C   0  0  0  0  0  0  0  0  0  0  0  0
   -6.8914    0.3809   -0.0000 C   0  0  0  0  0  0  0  0  0  0  0  0
  1  2  1  0  0  0  0
  2  3  2  0  0  0  0
  2  4  1  0  0  0  0
  3  5  1  0  0  0  0
  4  6  1  0  0  0  0
  4  7  2  0  0  0  0
  5  8  2  0  0  0  0
  6  9  1  0  0  0  0
  9 10  2  0  0  0  0
  9 11  1  0  0  0  0
 11 12  1  0  0  0  0
 11 13  2  0  0  0  0
 12 14  1  0  0  0  0
 13 15  1  0  0  0  0
  7  8  1  0  0  0  0
 14 15  2  0  0  0  0
M  END
>  <MolRegNo>
371847

>  <m>
=

>  <Value>
20

>  <Unit>
%

>  <Type>
Inhibition

>  <Ligand Efficiency>


>  <Binding Efficiency>


>  <Surface Efficiency>


>  <Assay Index>
278390

>  <Assay Category>


>  <Assay Organism>
SARS coronavirus

>  <Target ID>
20012

>  <Target Name>
SARS coronavirus 3C-like proteinase

>  <Target Organism>
SARS coronavirus

>  <Target Description>
Target is a single protein chain

>  <Sequence Accession>
P0C6U8

>  <Reference>
J. Med. Chem. 50 (8), 1850-1864 (2007)

>  <Pubmed ID>
17381079

>  <DOI>
10.1021/jm061425k

>  <InChI-Key>
IXMUCEMQJLTPRR-UHFFFAOYSA-N

>  <Molecular Formula>
C10H6NO2ClS

>  <Monoisotopic Mass>
238.980776

>  <Druglikeness>
1.8212

$$$$
Compound 282
Actelion Java MolfileCreator 1.0

 36 40  0  0  0  0  0  0  0  0999 V2000
    0.0000   -0.0000   -0.0000 O   0  0  0  0  0  0  0  0  0  0  0  0
   -1.1891    0.3883   -0.0000 C   0  0  0  0  0  0  0  0  0  0  0  0
   -2.4510   -0.5096   -0.0000 N   0  0  0  0  0  0  0  0  0  0  0  0
   -1.6866    1.8444   -0.0000 C   0  0  0  0  0  0  0  0  0  0  0  0
   -3.7130    0.4126   -0.0000 N   0  0  0  0  0  0  0  0  0  0  0  0
   -2.4632   -2.0385   -0.0000 C   0  0  0  0  0  0  0  0  0  0  0  0
   -3.2276    1.8686   -0.0000 C   0  0  0  0  0  0  0  0  0  0  0  0
   -0.8008    3.1063   -0.0000 C   0  0  0  0  0  0  0  0  0  0  0  0
   -1.2013   -2.8879   -0.0000 C   0  0  0  0  0  0  0  0  0  0  0  0
   -3.8707   -2.6937   -0.0000 C   0  0  0  0  0  0  0  0  0  0  0  0
   -4.1377    3.1305   -0.0000 C   0  0  0  0  0  0  0  0  0  0  0  0
    0.7159    2.9607   -0.0000 C   0  0  0  0  0  0  0  0  0  0  0  0
   -1.3226   -4.4167   -0.0000 C   0  0  0  0  0  0  0  0  0  0  0  0
   -3.9920   -4.2226   -0.0000 C   0  0  0  0  0  0  0  0  0  0  0  0
   -3.6280    4.5866   -0.0000 C   0  0  0  0  0  0  0  0  0  0  0  0
   -5.6665    2.8636   -0.0000 C   0  0  0  0  0  0  0  0  0  0  0  0
    1.7351    4.1134   -0.0000 O   0  0  0  0  0  0  0  0  0  0  0  0
    1.4803    1.6381   -0.0000 C   0  0  0  0  0  0  0  0  0  0  0  0
   -2.7180   -5.0720   -0.0000 C   0  0  0  0  0  0  0  0  0  0  0  0
   -4.6351    5.7757   -0.0000 C   0  0  0  0  0  0  0  0  0  0  0  0
   -6.6736    4.0527   -0.0000 C   0  0  0  0  0  0  0  0  0  0  0  0
    3.1063    3.4946   -0.0000 C   0  0  0  0  0  0  0  0  0  0  0  0
    2.9728    1.9778   -0.0000 C   0  0  0  0  0  0  0  0  0  0  0  0
   -2.8515   -6.6008   -0.0000 C   0  0  0  0  0  0  0  0  0  0  0  0
   -6.1640    5.5088   -0.0000 C   0  0  0  0  0  0  0  0  0  0  0  0
    4.4289    4.2711   -0.0000 C   0  0  0  0  0  0  0  0  0  0  0  0
   -3.9799   -7.1226   -0.0000 C   0  0  0  0  0  0  0  0  0  0  0  0
   -1.8444   -7.2803   -0.0000 C   0  0  0  0  0  0  0  0  0  0  0  0
    5.7515    3.5188   -0.0000 C   0  0  0  0  0  0  0  0  0  0  0  0
    4.4167    5.8243   -0.0000 C   0  0  0  0  0  0  0  0  0  0  0  0
    5.7393    1.9900   -0.0000 C   0  0  0  0  0  0  0  0  0  0  0  0
    7.0741    4.2954   -0.0000 C   0  0  0  0  0  0  0  0  0  0  0  0
    5.7393    6.6008   -0.0000 C   0  0  0  0  0  0  0  0  0  0  0  0
    6.7950    1.3833   -0.0000 O   0  0  0  0  0  0  0  0  0  0  0  0
    4.6594    1.3833   -0.0000 O   0  0  0  0  0  0  0  0  0  0  0  0
    7.0619    5.8485   -0.0000 C   0  0  0  0  0  0  0  0  0  0  0  0
  1  2  2  0  0  0  0
  2  3  1  0  0  0  0
  2  4  1  0  0  0  0
  3  5  1  0  0  0  0
  3  6  1  0  0  0  0
  4  7  1  0  0  0  0
  4  8  2  0  0  0  0
  6  9  2  0  0  0  0
  6 10  1  0  0  0  0
  7 11  1  0  0  0  0
  8 12  1  0  0  0  0
  9 13  1  0  0  0  0
 10 14  2  0  0  0  0
 11 15  2  0  0  0  0
 11 16  1  0  0  0  0
 12 17  1  0  0  0  0
 12 18  2  0  0  0  0
 13 19  2  0  0  0  0
 15 20  1  0  0  0  0
 16 21  2  0  0  0  0
 17 22  1  0  0  0  0
 18 23  1  0  0  0  0
 19 24  1  0  0  0  0
 20 25  2  0  0  0  0
 22 26  1  0  0  0  0
 24 27  1  0  0  0  0
 24 28  1  0  0  0  0
 26 29  2  0  0  0  0
 26 30  1  0  0  0  0
 29 31  1  0  0  0  0
 29 32  1  0  0  0  0
 30 33  2  0  0  0  0
 31 34  2  0  0  0  0
 31 35  1  0  0  0  0
 32 36  2  0  0  0  0
  5  7  2  0  0  0  0
 14 19  1  0  0  0  0
 21 25  1  0  0  0  0
 22 23  2  0  0  0  0
 33 36  1  0  0  0  0
M  END
>  <MolRegNo>
2087678

>  <m>
=

>  <Value>
11700

>  <Unit>
nM

>  <Type>
IC50

>  <Ligand Efficiency>
0.19

>  <Binding Efficiency>
10.35

>  <Surface Efficiency>
5.93

>  <Assay Index>
1017144

>  <Assay Category>


>  <Assay Organism>
SARS coronavirus

>  <Target ID>
101075

>  <Target Name>
Replicase polyprotein 1ab

>  <Target Organism>
SARS coronavirus

>  <Target Description>
Target is a single protein chain

>  <Sequence Accession>
P0C6X7

>  <Reference>
Bioorg. Med. Chem. 24 (13), 3035-3042 (2016)

>  <Pubmed ID>
27240464

>  <DOI>
10.1016/j.bmc.2016.05.013

>  <InChI-Key>
IZZUJMWOAXHUTE-UHFFFAOYSA-N

>  <Molecular Formula>
C30H24N2O4

>  <Monoisotopic Mass>
476.173608

>  <Druglikeness>
4.796

$$$$
Compound 283
Actelion Java MolfileCreator 1.0

 31 34  0  0  0  0  0  0  0  0999 V2000
    0.0000   -0.0000   -0.0000 O   0  0  0  0  0  0  0  0  0  0  0  0
   -0.0118   -1.4909   -0.0000 C   0  0  0  0  0  0  0  0  0  0  0  0
    1.2779   -2.2363   -0.0000 C   0  0  0  0  0  0  0  0  0  0  0  0
   -1.3252   -2.2363   -0.0000 C   0  0  0  0  0  0  0  0  0  0  0  0
    2.5677   -1.4672   -0.0000 O   0  0  0  0  0  0  0  0  0  0  0  0
    1.2661   -3.7272   -0.0000 C   0  0  0  0  0  0  0  0  0  0  0  0
   -1.3371   -3.7272   -0.0000 C   0  0  0  0  0  0  0  0  0  0  0  0
   -2.6386   -1.4672   -0.0000 C   0  0  0  0  0  0  0  0  0  0  0  0
   -0.0473   -4.4609   -0.0000 O   0  0  0  0  0  0  0  0  0  0  0  0
    2.5558   -4.4609   -0.0000 C   0  0  0  0  0  0  0  0  0  0  0  0
   -2.6505   -4.4609   -0.0000 C   0  0  0  0  0  0  0  0  0  0  0  0
   -2.6505    0.0473   -0.0000 O   0  0  0  0  0  0  0  0  0  0  0  0
   -3.9521   -2.2127   -0.0000 C   0  0  0  0  0  0  0  0  0  0  0  0
    2.5440   -5.9517   -0.0000 C   0  0  0  0  0  0  0  0  0  0  0  0
    3.8456   -3.7036   -0.0000 C   0  0  0  0  0  0  0  0  0  0  0  0
   -3.9639   -3.7036   -0.0000 C   0  0  0  0  0  0  0  0  0  0  0  0
    3.8337   -6.6854   -0.0000 C   0  0  0  0  0  0  0  0  0  0  0  0
    5.1353   -4.4372   -0.0000 C   0  0  0  0  0  0  0  0  0  0  0  0
   -5.2773   -4.4372   -0.0000 O   0  0  0  0  0  0  0  0  0  0  0  0
    3.8219   -8.1763   -0.0000 O   0  0  0  0  0  0  0  0  0  0  0  0
    5.1235   -5.9281   -0.0000 C   0  0  0  0  0  0  0  0  0  0  0  0
   -6.5907   -3.6799   -0.0000 C   0  0  0  0  0  0  0  0  0  0  0  0
    6.4132   -6.6617   -0.0000 O   0  0  0  0  0  0  0  0  0  0  0  0
   -7.9041   -4.4135   -0.0000 C   0  0  0  0  0  0  0  0  0  0  0  0
   -9.2175   -3.6562   -0.0000 C   0  0  0  0  0  0  0  0  0  0  0  0
   -7.9159   -5.9044   -0.0000 C   0  0  0  0  0  0  0  0  0  0  0  0
  -10.5309   -4.3899   -0.0000 C   0  0  0  0  0  0  0  0  0  0  0  0
   -9.2294   -6.6380   -0.0000 C   0  0  0  0  0  0  0  0  0  0  0  0
  -11.8443   -3.6326   -0.0000 C   0  0  0  0  0  0  0  0  0  0  0  0
  -10.5428   -5.8808   -0.0000 C   0  0  0  0  0  0  0  0  0  0  0  0
  -13.1577   -2.8753   -0.0000 N   0  0  0  0  0  0  0  0  0  0  0  0
  1  2  2  0  0  0  0
  2  3  1  0  0  0  0
  2  4  1  0  0  0  0
  3  5  1  0  0  0  0
  3  6  2  0  0  0  0
  4  7  2  0  0  0  0
  4  8  1  0  0  0  0
  6  9  1  0  0  0  0
  6 10  1  0  0  0  0
  7 11  1  0  0  0  0
  8 12  1  0  0  0  0
  8 13  2  0  0  0  0
 10 14  2  0  0  0  0
 10 15  1  0  0  0  0
 11 16  2  0  0  0  0
 14 17  1  0  0  0  0
 15 18  2  0  0  0  0
 16 19  1  0  0  0  0
 17 20  1  0  0  0  0
 17 21  2  0  0  0  0
 19 22  1  0  0  0  0
 21 23  1  0  0  0  0
 22 24  1  0  0  0  0
 24 25  2  0  0  0  0
 24 26  1  0  0  0  0
 25 27  1  0  0  0  0
 26 28  2  0  0  0  0
 27 29  1  0  0  0  0
 27 30  2  0  0  0  0
 29 31  3  0  0  0  0
  7  9  1  0  0  0  0
 13 16  1  0  0  0  0
 18 21  1  0  0  0  0
 28 30  1  0  0  0  0
M  END
>  <MolRegNo>
564248

>  <m>
=

>  <Value>
25400

>  <Unit>
nM

>  <Type>
IC50

>  <Ligand Efficiency>
0.20

>  <Binding Efficiency>
11.01

>  <Surface Efficiency>
3.19

>  <Assay Index>
426933

>  <Assay Category>


>  <Assay Organism>
SARS coronavirus

>  <Target ID>
101075

>  <Target Name>
Replicase polyprotein 1ab

>  <Target Organism>
SARS coronavirus

>  <Target Description>
Target is a single protein chain

>  <Sequence Accession>
P0C6X7

>  <Reference>
Bioorg. Med. Chem. Lett. 19 (16), 4538-4541 (2009)

>  <Pubmed ID>
19625187

>  <DOI>
10.1016/j.bmcl.2009.07.009

>  <InChI-Key>
JBMZSOUKPAAEJU-UHFFFAOYSA-N

>  <Molecular Formula>
C23H15NO7

>  <Monoisotopic Mass>
417.084854

>  <Druglikeness>
-4.3369

$$$$
Compound 284
Actelion Java MolfileCreator 1.0

 31 34  0  0  0  0  0  0  0  0999 V2000
    0.0000   -0.0000   -0.0000 O   0  0  0  0  0  0  0  0  0  0  0  0
   -0.0118   -1.4909   -0.0000 C   0  0  0  0  0  0  0  0  0  0  0  0
    1.2779   -2.2363   -0.0000 C   0  0  0  0  0  0  0  0  0  0  0  0
   -1.3252   -2.2363   -0.0000 C   0  0  0  0  0  0  0  0  0  0  0  0
    2.5677   -1.4672   -0.0000 O   0  0  0  0  0  0  0  0  0  0  0  0
    1.2661   -3.7272   -0.0000 C   0  0  0  0  0  0  0  0  0  0  0  0
   -1.3371   -3.7272   -0.0000 C   0  0  0  0  0  0  0  0  0  0  0  0
   -2.6386   -1.4672   -0.0000 C   0  0  0  0  0  0  0  0  0  0  0  0
   -0.0473   -4.4609   -0.0000 O   0  0  0  0  0  0  0  0  0  0  0  0
    2.5558   -4.4609   -0.0000 C   0  0  0  0  0  0  0  0  0  0  0  0
   -2.6505   -4.4609   -0.0000 C   0  0  0  0  0  0  0  0  0  0  0  0
   -2.6505    0.0473   -0.0000 O   0  0  0  0  0  0  0  0  0  0  0  0
   -3.9521   -2.2127   -0.0000 C   0  0  0  0  0  0  0  0  0  0  0  0
    2.5440   -5.9517   -0.0000 C   0  0  0  0  0  0  0  0  0  0  0  0
    3.8456   -3.7036   -0.0000 C   0  0  0  0  0  0  0  0  0  0  0  0
   -3.9639   -3.7036   -0.0000 C   0  0  0  0  0  0  0  0  0  0  0  0
    3.8337   -6.6854   -0.0000 C   0  0  0  0  0  0  0  0  0  0  0  0
    5.1353   -4.4372   -0.0000 C   0  0  0  0  0  0  0  0  0  0  0  0
   -5.2773   -4.4372   -0.0000 O   0  0  0  0  0  0  0  0  0  0  0  0
    3.8219   -8.1763   -0.0000 O   0  0  0  0  0  0  0  0  0  0  0  0
    5.1235   -5.9281   -0.0000 C   0  0  0  0  0  0  0  0  0  0  0  0
   -6.5907   -3.6799   -0.0000 C   0  0  0  0  0  0  0  0  0  0  0  0
    6.4132   -6.6617   -0.0000 O   0  0  0  0  0  0  0  0  0  0  0  0
   -7.9041   -4.4135   -0.0000 C   0  0  0  0  0  0  0  0  0  0  0  0
   -9.2175   -3.6562   -0.0000 C   0  0  0  0  0  0  0  0  0  0  0  0
   -7.9159   -5.9044   -0.0000 C   0  0  0  0  0  0  0  0  0  0  0  0
  -10.5309   -4.3899   -0.0000 C   0  0  0  0  0  0  0  0  0  0  0  0
   -9.2294   -6.6380   -0.0000 C   0  0  0  0  0  0  0  0  0  0  0  0
  -11.8443   -3.6326   -0.0000 C   0  0  0  0  0  0  0  0  0  0  0  0
  -10.5428   -5.8808   -0.0000 C   0  0  0  0  0  0  0  0  0  0  0  0
  -13.1577   -2.8753   -0.0000 N   0  0  0  0  0  0  0  0  0  0  0  0
  1  2  2  0  0  0  0
  2  3  1  0  0  0  0
  2  4  1  0  0  0  0
  3  5  1  0  0  0  0
  3  6  2  0  0  0  0
  4  7  2  0  0  0  0
  4  8  1  0  0  0  0
  6  9  1  0  0  0  0
  6 10  1  0  0  0  0
  7 11  1  0  0  0  0
  8 12  1  0  0  0  0
  8 13  2  0  0  0  0
 10 14  2  0  0  0  0
 10 15  1  0  0  0  0
 11 16  2  0  0  0  0
 14 17  1  0  0  0  0
 15 18  2  0  0  0  0
 16 19  1  0  0  0  0
 17 20  1  0  0  0  0
 17 21  2  0  0  0  0
 19 22  1  0  0  0  0
 21 23  1  0  0  0  0
 22 24  1  0  0  0  0
 24 25  2  0  0  0  0
 24 26  1  0  0  0  0
 25 27  1  0  0  0  0
 26 28  2  0  0  0  0
 27 29  1  0  0  0  0
 27 30  2  0  0  0  0
 29 31  3  0  0  0  0
  7  9  1  0  0  0  0
 13 16  1  0  0  0  0
 18 21  1  0  0  0  0
 28 30  1  0  0  0  0
M  END
>  <MolRegNo>
564248

>  <m>
=

>  <Value>
2700

>  <Unit>
nM

>  <Type>
IC50

>  <Ligand Efficiency>
0.25

>  <Binding Efficiency>
13.34

>  <Surface Efficiency>
3.86

>  <Assay Index>
426934

>  <Assay Category>


>  <Assay Organism>
SARS coronavirus

>  <Target ID>
101075

>  <Target Name>
Replicase polyprotein 1ab

>  <Target Organism>
SARS coronavirus

>  <Target Description>
Target is a single protein chain

>  <Sequence Accession>
P0C6X7

>  <Reference>
Bioorg. Med. Chem. Lett. 19 (16), 4538-4541 (2009)

>  <Pubmed ID>
19625187

>  <DOI>
10.1016/j.bmcl.2009.07.009

>  <InChI-Key>
JBMZSOUKPAAEJU-UHFFFAOYSA-N

>  <Molecular Formula>
C23H15NO7

>  <Monoisotopic Mass>
417.084854

>  <Druglikeness>
-4.3369

$$$$
Compound 285
Actelion Java MolfileCreator 1.0

 25 28  0  0  0  0  0  0  0  0999 V2000
    0.0000   -0.0000   -0.0000 Cl  0  0  0  0  0  0  0  0  0  0  0  0
   -0.0355   -1.4903   -0.0000 C   0  0  0  0  0  0  0  0  0  0  0  0
    1.2419   -2.2590   -0.0000 N   0  0  0  0  0  0  0  0  0  0  0  0
   -1.3602   -2.2117   -0.0000 C   0  0  0  0  0  0  0  0  0  0  0  0
    1.1946   -3.7493   -0.0000 C   0  0  0  0  0  0  0  0  0  0  0  0
   -2.7913   -1.7032   -0.0000 N   0  0  0  0  0  0  0  0  0  0  0  0
   -1.4075   -3.7020   -0.0000 C   0  0  0  0  0  0  0  0  0  0  0  0
   -0.1301   -4.4589   -0.0000 N   0  0  0  0  0  0  0  0  0  0  0  0
   -3.7020   -2.8977   -0.0000 C   0  0  0  0  0  0  0  0  0  0  0  0
   -2.8622   -4.1278   -0.0000 N   0  0  0  0  0  0  0  0  0  0  0  0
   -3.3708   -5.5352   -0.0000 C   0  0  0  0  0  0  0  0  0  0  0  0
   -2.7203   -6.8717   -0.0000 C   0  0  0  0  0  0  0  0  0  0  0  0
   -4.7310   -6.1739   -0.0000 C   0  0  0  0  0  0  0  0  0  0  0  0
   -4.0805   -7.5104   -0.0000 C   0  0  0  0  0  0  0  0  0  0  0  0
   -1.3128   -7.3448   -0.0000 C   0  0  0  0  0  0  0  0  0  0  0  0
   -4.5890   -8.9179   -0.0000 C   0  0  0  0  0  0  0  0  0  0  0  0
   -1.0408   -8.8114   -0.0000 O   0  0  0  0  0  0  0  0  0  0  0  0
   -6.0793   -9.1899   -0.0000 O   0  0  0  0  0  0  0  0  0  0  0  0
   -6.5879  -10.5974   -0.0000 C   0  0  0  0  0  0  0  0  0  0  0  0
   -8.0781  -10.8694   -0.0000 C   0  0  0  0  0  0  0  0  0  0  0  0
   -9.0598   -9.7103   -0.0000 C   0  0  0  0  0  0  0  0  0  0  0  0
   -8.5749  -12.2651   -0.0000 C   0  0  0  0  0  0  0  0  0  0  0  0
  -10.5501   -9.9824   -0.0000 C   0  0  0  0  0  0  0  0  0  0  0  0
  -10.0533  -12.5371   -0.0000 C   0  0  0  0  0  0  0  0  0  0  0  0
  -11.0587  -11.3898   -0.0000 C   0  0  0  0  0  0  0  0  0  0  0  0
  1  2  1  0  0  0  0
  2  3  2  0  0  0  0
  2  4  1  0  0  0  0
  3  5  1  0  0  0  0
  4  6  1  0  0  0  0
  4  7  2  0  0  0  0
  5  8  2  0  0  0  0
  6  9  2  0  0  0  0
  7 10  1  0  0  0  0
 10 11  1  0  0  0  0
 11 12  1  0  0  0  0
 11 13  1  0  0  0  0
 12 14  1  0  0  0  0
 12 15  1  0  0  0  0
 14 16  1  0  0  0  0
 15 17  1  0  0  0  0
 16 18  1  0  0  0  0
 18 19  1  0  0  0  0
 19 20  1  0  0  0  0
 20 21  2  0  0  0  0
 20 22  1  0  0  0  0
 21 23  1  0  0  0  0
 22 24  2  0  0  0  0
 23 25  2  0  0  0  0
  7  8  1  0  0  0  0
  9 10  1  0  0  0  0
 13 14  1  0  0  0  0
 24 25  1  0  0  0  0
M  END
>  <MolRegNo>
386752

>  <m>


>  <Value>
0

>  <Unit>


>  <Type>
Activity

>  <Ligand Efficiency>


>  <Binding Efficiency>


>  <Surface Efficiency>


>  <Assay Index>
287340

>  <Assay Category>


>  <Assay Organism>
SARS coronavirus

>  <Target ID>
100499

>  <Target Name>
SARS coronavirus

>  <Target Organism>
SARS coronavirus

>  <Target Description>
Target is a complete organism

>  <Sequence Accession>


>  <Reference>
Bioorg. Med. Chem. Lett. 17 (9), 2470-2473 (2007)

>  <Pubmed ID>
17336519

>  <DOI>
10.1016/j.bmcl.2007.02.026

>  <InChI-Key>
JDMXELSBXFFVRB-UHFFFAOYSA-N

>  <Molecular Formula>
C18H19N4O2Cl

>  <Monoisotopic Mass>
358.119653

>  <Druglikeness>
-0.0315

$$$$
Compound 286
Actelion Java MolfileCreator 1.0

 25 28  0  0  0  0  0  0  0  0999 V2000
    0.0000   -0.0000   -0.0000 Cl  0  0  0  0  0  0  0  0  0  0  0  0
   -0.0355   -1.4903   -0.0000 C   0  0  0  0  0  0  0  0  0  0  0  0
    1.2419   -2.2590   -0.0000 N   0  0  0  0  0  0  0  0  0  0  0  0
   -1.3602   -2.2117   -0.0000 C   0  0  0  0  0  0  0  0  0  0  0  0
    1.1946   -3.7493   -0.0000 C   0  0  0  0  0  0  0  0  0  0  0  0
   -2.7913   -1.7032   -0.0000 N   0  0  0  0  0  0  0  0  0  0  0  0
   -1.4075   -3.7020   -0.0000 C   0  0  0  0  0  0  0  0  0  0  0  0
   -0.1301   -4.4589   -0.0000 N   0  0  0  0  0  0  0  0  0  0  0  0
   -3.7020   -2.8977   -0.0000 C   0  0  0  0  0  0  0  0  0  0  0  0
   -2.8622   -4.1278   -0.0000 N   0  0  0  0  0  0  0  0  0  0  0  0
   -3.3708   -5.5352   -0.0000 C   0  0  0  0  0  0  0  0  0  0  0  0
   -2.7203   -6.8717   -0.0000 C   0  0  0  0  0  0  0  0  0  0  0  0
   -4.7310   -6.1739   -0.0000 C   0  0  0  0  0  0  0  0  0  0  0  0
   -4.0805   -7.5104   -0.0000 C   0  0  0  0  0  0  0  0  0  0  0  0
   -1.3128   -7.3448   -0.0000 C   0  0  0  0  0  0  0  0  0  0  0  0
   -4.5890   -8.9179   -0.0000 C   0  0  0  0  0  0  0  0  0  0  0  0
   -1.0408   -8.8114   -0.0000 O   0  0  0  0  0  0  0  0  0  0  0  0
   -6.0793   -9.1899   -0.0000 O   0  0  0  0  0  0  0  0  0  0  0  0
   -6.5879  -10.5974   -0.0000 C   0  0  0  0  0  0  0  0  0  0  0  0
   -8.0781  -10.8694   -0.0000 C   0  0  0  0  0  0  0  0  0  0  0  0
   -9.0598   -9.7103   -0.0000 C   0  0  0  0  0  0  0  0  0  0  0  0
   -8.5749  -12.2651   -0.0000 C   0  0  0  0  0  0  0  0  0  0  0  0
  -10.5501   -9.9824   -0.0000 C   0  0  0  0  0  0  0  0  0  0  0  0
  -10.0533  -12.5371   -0.0000 C   0  0  0  0  0  0  0  0  0  0  0  0
  -11.0587  -11.3898   -0.0000 C   0  0  0  0  0  0  0  0  0  0  0  0
  1  2  1  0  0  0  0
  2  3  2  0  0  0  0
  2  4  1  0  0  0  0
  3  5  1  0  0  0  0
  4  6  1  0  0  0  0
  4  7  2  0  0  0  0
  5  8  2  0  0  0  0
  6  9  2  0  0  0  0
  7 10  1  0  0  0  0
 10 11  1  0  0  0  0
 11 12  1  0  0  0  0
 11 13  1  0  0  0  0
 12 14  1  0  0  0  0
 12 15  1  0  0  0  0
 14 16  1  0  0  0  0
 15 17  1  0  0  0  0
 16 18  1  0  0  0  0
 18 19  1  0  0  0  0
 19 20  1  0  0  0  0
 20 21  2  0  0  0  0
 20 22  1  0  0  0  0
 21 23  1  0  0  0  0
 22 24  2  0  0  0  0
 23 25  2  0  0  0  0
  7  8  1  0  0  0  0
  9 10  1  0  0  0  0
 13 14  1  0  0  0  0
 24 25  1  0  0  0  0
M  END
>  <MolRegNo>
386752

>  <m>
=

>  <Value>
14500

>  <Unit>
nM

>  <Type>
IC50

>  <Ligand Efficiency>


>  <Binding Efficiency>


>  <Surface Efficiency>


>  <Assay Index>
287336

>  <Assay Category>


>  <Assay Organism>
SARS coronavirus

>  <Target ID>
100499

>  <Target Name>
SARS coronavirus

>  <Target Organism>
SARS coronavirus

>  <Target Description>
Target is a complete organism

>  <Sequence Accession>


>  <Reference>
Bioorg. Med. Chem. Lett. 17 (9), 2470-2473 (2007)

>  <Pubmed ID>
17336519

>  <DOI>
10.1016/j.bmcl.2007.02.026

>  <InChI-Key>
JDMXELSBXFFVRB-UHFFFAOYSA-N

>  <Molecular Formula>
C18H19N4O2Cl

>  <Monoisotopic Mass>
358.119653

>  <Druglikeness>
-0.0315

$$$$
Compound 287
Actelion Java MolfileCreator 1.0

 29 32  0  0  0  0  0  0  0  0999 V2000
    0.0000   -0.0000   -0.0000 Cl  0  0  0  0  0  0  0  0  0  0  0  0
    1.2894   -0.7402   -0.0000 C   0  0  0  0  0  0  0  0  0  0  0  0
    1.2775   -2.2446   -0.0000 C   0  0  0  0  0  0  0  0  0  0  0  0
    2.5789    0.0239   -0.0000 C   0  0  0  0  0  0  0  0  0  0  0  0
    2.5669   -2.9848   -0.0000 C   0  0  0  0  0  0  0  0  0  0  0  0
    3.8802   -0.7164   -0.0000 C   0  0  0  0  0  0  0  0  0  0  0  0
    3.8683   -2.2207   -0.0000 C   0  0  0  0  0  0  0  0  0  0  0  0
    5.1577   -2.9609   -0.0000 N   0  0  0  0  0  0  0  0  0  0  0  0
    6.4472   -2.1968   -0.0000 C   0  0  0  0  0  0  0  0  0  0  0  0
    6.4352   -0.6805   -0.0000 O   0  0  0  0  0  0  0  0  0  0  0  0
    7.7366   -2.9370   -0.0000 C   0  0  0  0  0  0  0  0  0  0  0  0
    9.0260   -2.1729   -0.0000 S   0  0  0  0  0  0  0  0  0  0  0  0
   10.3154   -2.9132   -0.0000 C   0  0  0  0  0  0  0  0  0  0  0  0
   11.5929   -2.1371   -0.0000 N   0  0  0  0  0  0  0  0  0  0  0  0
   10.2916   -4.4056   -0.0000 N   0  0  0  0  0  0  0  0  0  0  0  0
   12.8824   -2.8654   -0.0000 C   0  0  0  0  0  0  0  0  0  0  0  0
   11.5810   -5.1458   -0.0000 C   0  0  0  0  0  0  0  0  0  0  0  0
   14.1718   -2.0894   -0.0000 C   0  0  0  0  0  0  0  0  0  0  0  0
   12.8824   -4.3697   -0.0000 C   0  0  0  0  0  0  0  0  0  0  0  0
   15.5448   -2.6863   -0.0000 N   0  0  0  0  0  0  0  0  0  0  0  0
   14.3151   -0.5850   -0.0000 C   0  0  0  0  0  0  0  0  0  0  0  0
   16.5358   -1.5521   -0.0000 C   0  0  0  0  0  0  0  0  0  0  0  0
   15.7836   -0.2507   -0.0000 S   0  0  0  0  0  0  0  0  0  0  0  0
   18.0282   -1.6954   -0.0000 C   0  0  0  0  0  0  0  0  0  0  0  0
   19.0191   -0.5611   -0.0000 N   0  0  0  0  0  0  0  0  0  0  0  0
   18.7803   -2.9967   -0.0000 C   0  0  0  0  0  0  0  0  0  0  0  0
   20.3921   -1.1462   -0.0000 C   0  0  0  0  0  0  0  0  0  0  0  0
   20.2488   -2.6624   -0.0000 S   0  0  0  0  0  0  0  0  0  0  0  0
   21.6815   -0.3701   -0.0000 C   0  0  0  0  0  0  0  0  0  0  0  0
  1  2  1  0  0  0  0
  2  3  2  0  0  0  0
  2  4  1  0  0  0  0
  3  5  1  0  0  0  0
  4  6  2  0  0  0  0
  5  7  2  0  0  0  0
  7  8  1  0  0  0  0
  8  9  1  0  0  0  0
  9 10  2  0  0  0  0
  9 11  1  0  0  0  0
 11 12  1  0  0  0  0
 12 13  1  0  0  0  0
 13 14  2  0  0  0  0
 13 15  1  0  0  0  0
 14 16  1  0  0  0  0
 15 17  2  0  0  0  0
 16 18  1  0  0  0  0
 16 19  2  0  0  0  0
 18 20  1  0  0  0  0
 18 21  2  0  0  0  0
 20 22  2  0  0  0  0
 21 23  1  0  0  0  0
 22 24  1  0  0  0  0
 24 25  1  0  0  0  0
 24 26  2  0  0  0  0
 25 27  2  0  0  0  0
 26 28  1  0  0  0  0
 27 29  1  0  0  0  0
  6  7  1  0  0  0  0
 17 19  1  0  0  0  0
 22 23  1  0  0  0  0
 27 28  1  0  0  0  0
M  END
>  <MolRegNo>
348544

>  <m>
=

>  <Value>
7.0795e13

>  <Unit>
nM

>  <Type>
IC50

>  <Ligand Efficiency>


>  <Binding Efficiency>


>  <Surface Efficiency>


>  <Assay Index>
262926

>  <Assay Category>


>  <Assay Organism>
SARS coronavirus

>  <Target ID>
20012

>  <Target Name>
SARS coronavirus 3C-like proteinase

>  <Target Organism>
SARS coronavirus

>  <Target Description>
Target is a single protein chain

>  <Sequence Accession>
P0C6U8

>  <Reference>
J. Med. Chem. 49 (12), 3485-3495 (2006)

>  <Pubmed ID>
16759091

>  <DOI>
10.1021/jm050852f

>  <InChI-Key>
JEZYTEDGOJCVQS-UHFFFAOYSA-N

>  <Molecular Formula>
C19H14N5OClS3

>  <Monoisotopic Mass>
459.004897

>  <Druglikeness>
4.6389

$$$$
Compound 288
Actelion Java MolfileCreator 1.0

 29 32  0  0  0  0  0  0  0  0999 V2000
    0.0000   -0.0000   -0.0000 Cl  0  0  0  0  0  0  0  0  0  0  0  0
    1.2894   -0.7402   -0.0000 C   0  0  0  0  0  0  0  0  0  0  0  0
    1.2775   -2.2446   -0.0000 C   0  0  0  0  0  0  0  0  0  0  0  0
    2.5789    0.0239   -0.0000 C   0  0  0  0  0  0  0  0  0  0  0  0
    2.5669   -2.9848   -0.0000 C   0  0  0  0  0  0  0  0  0  0  0  0
    3.8802   -0.7164   -0.0000 C   0  0  0  0  0  0  0  0  0  0  0  0
    3.8683   -2.2207   -0.0000 C   0  0  0  0  0  0  0  0  0  0  0  0
    5.1577   -2.9609   -0.0000 N   0  0  0  0  0  0  0  0  0  0  0  0
    6.4472   -2.1968   -0.0000 C   0  0  0  0  0  0  0  0  0  0  0  0
    6.4352   -0.6805   -0.0000 O   0  0  0  0  0  0  0  0  0  0  0  0
    7.7366   -2.9370   -0.0000 C   0  0  0  0  0  0  0  0  0  0  0  0
    9.0260   -2.1729   -0.0000 S   0  0  0  0  0  0  0  0  0  0  0  0
   10.3154   -2.9132   -0.0000 C   0  0  0  0  0  0  0  0  0  0  0  0
   11.5929   -2.1371   -0.0000 N   0  0  0  0  0  0  0  0  0  0  0  0
   10.2916   -4.4056   -0.0000 N   0  0  0  0  0  0  0  0  0  0  0  0
   12.8824   -2.8654   -0.0000 C   0  0  0  0  0  0  0  0  0  0  0  0
   11.5810   -5.1458   -0.0000 C   0  0  0  0  0  0  0  0  0  0  0  0
   14.1718   -2.0894   -0.0000 C   0  0  0  0  0  0  0  0  0  0  0  0
   12.8824   -4.3697   -0.0000 C   0  0  0  0  0  0  0  0  0  0  0  0
   15.5448   -2.6863   -0.0000 N   0  0  0  0  0  0  0  0  0  0  0  0
   14.3151   -0.5850   -0.0000 C   0  0  0  0  0  0  0  0  0  0  0  0
   16.5358   -1.5521   -0.0000 C   0  0  0  0  0  0  0  0  0  0  0  0
   15.7836   -0.2507   -0.0000 S   0  0  0  0  0  0  0  0  0  0  0  0
   18.0282   -1.6954   -0.0000 C   0  0  0  0  0  0  0  0  0  0  0  0
   19.0191   -0.5611   -0.0000 N   0  0  0  0  0  0  0  0  0  0  0  0
   18.7803   -2.9967   -0.0000 C   0  0  0  0  0  0  0  0  0  0  0  0
   20.3921   -1.1462   -0.0000 C   0  0  0  0  0  0  0  0  0  0  0  0
   20.2488   -2.6624   -0.0000 S   0  0  0  0  0  0  0  0  0  0  0  0
   21.6815   -0.3701   -0.0000 C   0  0  0  0  0  0  0  0  0  0  0  0
  1  2  1  0  0  0  0
  2  3  2  0  0  0  0
  2  4  1  0  0  0  0
  3  5  1  0  0  0  0
  4  6  2  0  0  0  0
  5  7  2  0  0  0  0
  7  8  1  0  0  0  0
  8  9  1  0  0  0  0
  9 10  2  0  0  0  0
  9 11  1  0  0  0  0
 11 12  1  0  0  0  0
 12 13  1  0  0  0  0
 13 14  2  0  0  0  0
 13 15  1  0  0  0  0
 14 16  1  0  0  0  0
 15 17  2  0  0  0  0
 16 18  1  0  0  0  0
 16 19  2  0  0  0  0
 18 20  1  0  0  0  0
 18 21  2  0  0  0  0
 20 22  2  0  0  0  0
 21 23  1  0  0  0  0
 22 24  1  0  0  0  0
 24 25  1  0  0  0  0
 24 26  2  0  0  0  0
 25 27  2  0  0  0  0
 26 28  1  0  0  0  0
 27 29  1  0  0  0  0
  6  7  1  0  0  0  0
 17 19  1  0  0  0  0
 22 23  1  0  0  0  0
 27 28  1  0  0  0  0
M  END
>  <MolRegNo>
348544

>  <m>
=

>  <Value>
14000

>  <Unit>
nM

>  <Type>
IC50

>  <Ligand Efficiency>
0.23

>  <Binding Efficiency>
10.55

>  <Surface Efficiency>
6.02

>  <Assay Index>
262926

>  <Assay Category>


>  <Assay Organism>
SARS coronavirus

>  <Target ID>
20012

>  <Target Name>
SARS coronavirus 3C-like proteinase

>  <Target Organism>
SARS coronavirus

>  <Target Description>
Target is a single protein chain

>  <Sequence Accession>
P0C6U8

>  <Reference>
J. Med. Chem. 49 (12), 3485-3495 (2006)

>  <Pubmed ID>
16759091

>  <DOI>
10.1021/jm050852f

>  <InChI-Key>
JEZYTEDGOJCVQS-UHFFFAOYSA-N

>  <Molecular Formula>
C19H14N5OClS3

>  <Monoisotopic Mass>
459.004897

>  <Druglikeness>
4.6389

$$$$
Compound 289
Actelion Java MolfileCreator 1.0

 24 26  0  0  0  0  0  0  0  0999 V2000
    0.0000   -0.0000   -0.0000 Cl  0  0  0  0  0  0  0  0  0  0  0  0
   -0.0354   -1.4860   -0.0000 C   0  0  0  0  0  0  0  0  0  0  0  0
    1.2383   -2.2526   -0.0000 N   0  0  0  0  0  0  0  0  0  0  0  0
   -1.3563   -2.2054   -0.0000 C   0  0  0  0  0  0  0  0  0  0  0  0
    1.1912   -3.7386   -0.0000 C   0  0  0  0  0  0  0  0  0  0  0  0
   -2.7833   -1.6983   -0.0000 N   0  0  0  0  0  0  0  0  0  0  0  0
   -1.4035   -3.6915   -0.0000 C   0  0  0  0  0  0  0  0  0  0  0  0
   -0.1297   -4.4463   -0.0000 N   0  0  0  0  0  0  0  0  0  0  0  0
   -3.6915   -2.8895   -0.0000 C   0  0  0  0  0  0  0  0  0  0  0  0
   -2.8541   -4.1160   -0.0000 N   0  0  0  0  0  0  0  0  0  0  0  0
   -3.3612   -5.5195   -0.0000 C   0  0  0  0  0  0  0  0  0  0  0  0
   -4.8472   -5.7908   -0.0000 C   0  0  0  0  0  0  0  0  0  0  0  0
   -5.3544   -7.1942   -0.0000 C   0  0  0  0  0  0  0  0  0  0  0  0
   -6.8404   -7.4655   -0.0000 C   0  0  0  0  0  0  0  0  0  0  0  0
   -4.3873   -8.3146   -0.0000 C   0  0  0  0  0  0  0  0  0  0  0  0
   -7.8311   -6.3215   -0.0000 O   0  0  0  0  0  0  0  0  0  0  0  0
   -4.8944   -9.7181   -0.0000 O   0  0  0  0  0  0  0  0  0  0  0  0
   -9.3171   -6.5927   -0.0000 C   0  0  0  0  0  0  0  0  0  0  0  0
  -10.3078   -5.4487   -0.0000 C   0  0  0  0  0  0  0  0  0  0  0  0
   -9.8242   -4.0217   -0.0000 C   0  0  0  0  0  0  0  0  0  0  0  0
  -11.7820   -5.7200   -0.0000 C   0  0  0  0  0  0  0  0  0  0  0  0
  -10.8149   -2.8777   -0.0000 C   0  0  0  0  0  0  0  0  0  0  0  0
  -12.7727   -4.5760   -0.0000 C   0  0  0  0  0  0  0  0  0  0  0  0
  -12.3009   -3.1489   -0.0000 C   0  0  0  0  0  0  0  0  0  0  0  0
  1  2  1  0  0  0  0
  2  3  2  0  0  0  0
  2  4  1  0  0  0  0
  3  5  1  0  0  0  0
  4  6  1  0  0  0  0
  4  7  2  0  0  0  0
  5  8  2  0  0  0  0
  6  9  2  0  0  0  0
  7 10  1  0  0  0  0
 10 11  1  0  0  0  0
 11 12  1  0  0  0  0
 12 13  1  0  0  0  0
 13 14  1  0  0  0  0
 13 15  1  0  0  0  0
 14 16  1  0  0  0  0
 15 17  1  0  0  0  0
 16 18  1  0  0  0  0
 18 19  1  0  0  0  0
 19 20  2  0  0  0  0
 19 21  1  0  0  0  0
 20 22  1  0  0  0  0
 21 23  2  0  0  0  0
 22 24  2  0  0  0  0
  7  8  1  0  0  0  0
  9 10  1  0  0  0  0
 23 24  1  0  0  0  0
M  END
>  <MolRegNo>
386749

>  <m>
>

>  <Value>
3.0e5

>  <Unit>
nM

>  <Type>
IC50

>  <Ligand Efficiency>


>  <Binding Efficiency>


>  <Surface Efficiency>


>  <Assay Index>
287336

>  <Assay Category>


>  <Assay Organism>
SARS coronavirus

>  <Target ID>
100499

>  <Target Name>
SARS coronavirus

>  <Target Organism>
SARS coronavirus

>  <Target Description>
Target is a complete organism

>  <Sequence Accession>


>  <Reference>
Bioorg. Med. Chem. Lett. 17 (9), 2470-2473 (2007)

>  <Pubmed ID>
17336519

>  <DOI>
10.1016/j.bmcl.2007.02.026

>  <InChI-Key>
JGBOSEIBGRKAFD-UHFFFAOYSA-N

>  <Molecular Formula>
C17H19N4O2Cl

>  <Monoisotopic Mass>
346.119653

>  <Druglikeness>
-2.3866

$$$$
Compound 290
Actelion Java MolfileCreator 1.0

 22 23  0  0  0  0  0  0  0  0999 V2000
    0.0000   -0.0000   -0.0000 S   0  0  0  0  0  0  0  0  0  0  0  0
    0.7482   -1.2827   -0.0000 O   0  0  0  0  0  0  0  0  0  0  0  0
   -0.7720    1.3064   -0.0000 O   0  0  0  0  0  0  0  0  0  0  0  0
    1.2827    0.7720   -0.0000 C   0  0  0  0  0  0  0  0  0  0  0  0
   -1.3064   -0.7364   -0.0000 C   0  0  0  0  0  0  0  0  0  0  0  0
    2.5772    0.0356   -0.0000 N   0  0  0  0  0  0  0  0  0  0  0  0
    1.2589    2.2684   -0.0000 C   0  0  0  0  0  0  0  0  0  0  0  0
   -2.6129    0.0238   -0.0000 C   0  0  0  0  0  0  0  0  0  0  0  0
   -1.3183   -2.2328   -0.0000 C   0  0  0  0  0  0  0  0  0  0  0  0
    3.8599    0.8076   -0.0000 C   0  0  0  0  0  0  0  0  0  0  0  0
   -0.0594    3.0167   -0.0000 C   0  0  0  0  0  0  0  0  0  0  0  0
    2.5297    3.0404   -0.0000 C   0  0  0  0  0  0  0  0  0  0  0  0
   -3.9193   -0.7126   -0.0000 C   0  0  0  0  0  0  0  0  0  0  0  0
   -2.6366   -2.9692   -0.0000 C   0  0  0  0  0  0  0  0  0  0  0  0
    3.8362    2.3159   -0.0000 C   0  0  0  0  0  0  0  0  0  0  0  0
    5.1545    0.0831   -0.0000 C   0  0  0  0  0  0  0  0  0  0  0  0
   -1.3777    3.7649   -0.0000 N   0  0  0  0  0  0  0  0  0  0  0  0
    2.5060    4.5488   -0.0000 C   0  0  0  0  0  0  0  0  0  0  0  0
   -3.9312   -2.1972   -0.0000 C   0  0  0  0  0  0  0  0  0  0  0  0
    5.1188    3.0998   -0.0000 N   0  0  0  0  0  0  0  0  0  0  0  0
    5.0951    4.6081   -0.0000 O   0  0  0  0  0  0  0  0  0  0  0  0
    6.4134    2.3753   -0.0000 O   0  0  0  0  0  0  0  0  0  0  0  0
  1  2  2  0  0  0  0
  1  3  2  0  0  0  0
  1  4  1  0  0  0  0
  1  5  1  0  0  0  0
  4  6  2  0  0  0  0
  4  7  1  0  0  0  0
  5  8  2  0  0  0  0
  5  9  1  0  0  0  0
  6 10  1  0  0  0  0
  7 11  1  0  0  0  0
  7 12  2  0  0  0  0
  8 13  1  0  0  0  0
  9 14  2  0  0  0  0
 10 15  2  0  0  0  0
 10 16  1  0  0  0  0
 11 17  3  0  0  0  0
 12 18  1  0  0  0  0
 13 19  2  0  0  0  0
 15 20  1  0  0  0  0
 20 21  2  0  0  0  0
 20 22  1  0  0  0  0
 12 15  1  0  0  0  0
 14 19  1  0  0  0  0
M  CHG  2  20   1  22  -1
M  END
>  <MolRegNo>
356548

>  <m>
=

>  <Value>
13000

>  <Unit>
nM

>  <Type>
IC50

>  <Ligand Efficiency>
0.30

>  <Binding Efficiency>
15.40

>  <Surface Efficiency>
4.29

>  <Assay Index>
266027

>  <Assay Category>


>  <Assay Organism>
SARS coronavirus

>  <Target ID>
20012

>  <Target Name>
SARS coronavirus 3C-like proteinase

>  <Target Organism>
SARS coronavirus

>  <Target Description>
Target is a single protein chain

>  <Sequence Accession>
P0C6U8

>  <Reference>
J. Med. Chem. 49 (17), 5154-5161 (2006)

>  <Pubmed ID>
16913704

>  <DOI>
10.1021/jm060207o

>  <InChI-Key>
JLRPBEAXLCQKGS-UHFFFAOYSA-N

>  <Molecular Formula>
C14H11N3O4S

>  <Monoisotopic Mass>
317.047027

>  <Druglikeness>
-19.339

$$$$
Compound 291
Actelion Java MolfileCreator 1.0

 37 41  0  0  0  0  0  0  0  0999 V2000
    0.0000   -0.0000   -0.0000 Cl  0  0  0  0  0  0  0  0  0  0  0  0
   -0.0122   -1.2313   -0.0000 C   0  0  0  0  0  0  0  0  0  0  0  0
   -1.3654   -1.9871   -0.0000 C   0  0  0  0  0  0  0  0  0  0  0  0
    1.3166   -1.9871   -0.0000 C   0  0  0  0  0  0  0  0  0  0  0  0
   -1.3776   -3.5232   -0.0000 C   0  0  0  0  0  0  0  0  0  0  0  0
    1.3044   -3.5232   -0.0000 C   0  0  0  0  0  0  0  0  0  0  0  0
   -0.0488   -4.2790   -0.0000 C   0  0  0  0  0  0  0  0  0  0  0  0
   -2.7308   -4.2790   -0.0000 C   0  0  0  0  0  0  0  0  0  0  0  0
   -0.0610   -5.8151   -0.0000 C   0  0  0  0  0  0  0  0  0  0  0  0
   -4.1327   -3.6329   -0.0000 O   0  0  0  0  0  0  0  0  0  0  0  0
   -2.8771   -5.7907   -0.0000 C   0  0  0  0  0  0  0  0  0  0  0  0
    0.9997   -6.4246   -0.0000 O   0  0  0  0  0  0  0  0  0  0  0  0
   -1.1459   -6.4246   -0.0000 O   0  0  0  0  0  0  0  0  0  0  0  0
   -5.1812   -4.7667   -0.0000 C   0  0  0  0  0  0  0  0  0  0  0  0
   -4.4009   -6.1077   -0.0000 C   0  0  0  0  0  0  0  0  0  0  0  0
   -6.7294   -4.5960   -0.0000 C   0  0  0  0  0  0  0  0  0  0  0  0
   -7.6437   -5.8395   -0.0000 C   0  0  0  0  0  0  0  0  0  0  0  0
   -7.1683   -7.2780   -0.0000 C   0  0  0  0  0  0  0  0  0  0  0  0
   -9.1920   -5.8151   -0.0000 C   0  0  0  0  0  0  0  0  0  0  0  0
   -5.9979   -7.6437   -0.0000 O   0  0  0  0  0  0  0  0  0  0  0  0
   -8.4361   -8.1801   -0.0000 N   0  0  0  0  0  0  0  0  0  0  0  0
   -9.6796   -7.2780   -0.0000 N   0  0  0  0  0  0  0  0  0  0  0  0
  -10.1063   -4.5472   -0.0000 C   0  0  0  0  0  0  0  0  0  0  0  0
   -8.4483   -9.7162   -0.0000 C   0  0  0  0  0  0  0  0  0  0  0  0
   -9.5943   -3.0843   -0.0000 C   0  0  0  0  0  0  0  0  0  0  0  0
  -11.6424   -4.8154   -0.0000 C   0  0  0  0  0  0  0  0  0  0  0  0
   -9.8625  -10.3745   -0.0000 C   0  0  0  0  0  0  0  0  0  0  0  0
   -7.1805  -10.5696   -0.0000 C   0  0  0  0  0  0  0  0  0  0  0  0
  -10.6061   -1.8896   -0.0000 C   0  0  0  0  0  0  0  0  0  0  0  0
  -12.6542   -3.6207   -0.0000 C   0  0  0  0  0  0  0  0  0  0  0  0
   -9.9844  -11.9106   -0.0000 C   0  0  0  0  0  0  0  0  0  0  0  0
   -7.3024  -12.1056   -0.0000 C   0  0  0  0  0  0  0  0  0  0  0  0
  -12.1422   -2.1578   -0.0000 C   0  0  0  0  0  0  0  0  0  0  0  0
  -11.3985  -12.5689   -0.0000 C   0  0  0  0  0  0  0  0  0  0  0  0
   -8.7165  -12.7639   -0.0000 C   0  0  0  0  0  0  0  0  0  0  0  0
  -12.4348  -11.8618   -0.0000 O   0  0  0  0  0  0  0  0  0  0  0  0
  -11.5083  -13.7880   -0.0000 O   0  0  0  0  0  0  0  0  0  0  0  0
  1  2  1  0  0  0  0
  2  3  2  0  0  0  0
  2  4  1  0  0  0  0
  3  5  1  0  0  0  0
  4  6  2  0  0  0  0
  5  7  2  0  0  0  0
  5  8  1  0  0  0  0
  7  9  1  0  0  0  0
  8 10  1  0  0  0  0
  8 11  2  0  0  0  0
  9 12  2  0  0  0  0
  9 13  1  0  0  0  0
 10 14  1  0  0  0  0
 11 15  1  0  0  0  0
 14 16  1  0  0  0  0
 16 17  2  0  0  0  0
 17 18  1  0  0  0  0
 17 19  1  0  0  0  0
 18 20  2  0  0  0  0
 18 21  1  0  0  0  0
 19 22  2  0  0  0  0
 19 23  1  0  0  0  0
 21 24  1  0  0  0  0
 23 25  2  0  0  0  0
 23 26  1  0  0  0  0
 24 27  2  0  0  0  0
 24 28  1  0  0  0  0
 25 29  1  0  0  0  0
 26 30  2  0  0  0  0
 27 31  1  0  0  0  0
 28 32  2  0  0  0  0
 29 33  2  0  0  0  0
 31 34  1  0  0  0  0
 31 35  2  0  0  0  0
 34 36  2  0  0  0  0
 34 37  1  0  0  0  0
  6  7  1  0  0  0  0
 14 15  2  0  0  0  0
 21 22  1  0  0  0  0
 30 33  1  0  0  0  0
 32 35  1  0  0  0  0
M  END
>  <MolRegNo>
2087688

>  <m>
=

>  <Value>
44700

>  <Unit>
nM

>  <Type>
IC50

>  <Ligand Efficiency>
0.16

>  <Binding Efficiency>
8.48

>  <Surface Efficiency>
3.61

>  <Assay Index>
1017144

>  <Assay Category>


>  <Assay Organism>
SARS coronavirus

>  <Target ID>
101075

>  <Target Name>
Replicase polyprotein 1ab

>  <Target Organism>
SARS coronavirus

>  <Target Description>
Target is a single protein chain

>  <Sequence Accession>
P0C6X7

>  <Reference>
Bioorg. Med. Chem. 24 (13), 3035-3042 (2016)

>  <Pubmed ID>
27240464

>  <DOI>
10.1016/j.bmc.2016.05.013

>  <InChI-Key>
JNEXOTBREMZSAW-UHFFFAOYSA-N

>  <Molecular Formula>
C28H17N2O6Cl

>  <Monoisotopic Mass>
512.077515

>  <Druglikeness>
5.0217

$$$$
Compound 292
Actelion Java MolfileCreator 1.0

 44 44  0  0  1  0  0  0  0  0999 V2000
    0.0000   -0.0000   -0.0000 O   0  0  0  0  0  0  0  0  0  0  0  0
    1.1071    1.0129   -0.0000 C   0  0  0  0  0  0  0  0  0  0  0  0
    2.5558    0.7067   -0.0000 N   0  0  0  0  0  0  0  0  0  0  0  0
    0.9422    2.5087   -0.0000 C   0  0  0  0  0  0  0  0  0  0  0  0
    3.2978    2.0140   -0.0000 C   0  0  0  0  0  0  0  0  0  0  0  0
    2.2967    3.1329   -0.0000 C   0  0  0  0  0  0  0  0  0  0  0  0
   -0.3651    3.2743   -0.0000 C   0  0  0  0  0  0  0  0  0  0  0  0
   -0.3769    4.7818   -0.0000 C   0  0  0  0  0  0  0  0  0  0  0  0
   -1.6842    5.5474   -0.0000 N   0  0  0  0  0  0  0  0  0  0  0  0
    0.9069    5.5356   -0.0000 C   0  0  0  0  0  0  0  0  0  0  0  0
   -2.9916    4.8172   -0.0000 C   0  0  0  0  0  0  0  0  0  0  0  0
    0.8951    7.0432   -0.0000 C   0  0  0  0  0  0  0  0  0  0  0  0
   -3.0034    3.3331   -0.0000 O   0  0  0  0  0  0  0  0  0  0  0  0
   -4.2989    5.5827   -0.0000 C   0  0  0  0  0  0  0  0  0  0  0  0
    2.1789    7.7970   -0.0000 C   0  0  0  0  0  0  0  0  0  0  0  0
   -5.6063    4.8525   -0.0000 N   0  0  0  0  0  0  0  0  0  0  0  0
   -4.3107    7.0903   -0.0000 C   0  0  0  0  0  0  0  0  0  0  0  0
    2.1671    9.3046   -0.0000 O   0  0  0  0  0  0  0  0  0  0  0  0
    3.4627    7.0550   -0.0000 O   0  0  0  0  0  0  0  0  0  0  0  0
   -6.9136    5.6181   -0.0000 C   0  0  0  0  0  0  0  0  0  0  0  0
   -3.0269    7.8441   -0.0000 C   0  0  0  0  0  0  0  0  0  0  0  0
    4.7465    7.8088   -0.0000 C   0  0  0  0  0  0  0  0  0  0  0  0
   -6.9254    7.1256   -0.0000 O   0  0  0  0  0  0  0  0  0  0  0  0
   -8.2210    4.8878   -0.0000 C   0  0  0  0  0  0  0  0  0  0  0  0
   -3.0387    9.3517   -0.0000 C   0  0  0  0  0  0  0  0  0  0  0  0
   -1.7431    7.1021   -0.0000 C   0  0  0  0  0  0  0  0  0  0  0  0
    6.0303    7.0667   -0.0000 C   0  0  0  0  0  0  0  0  0  0  0  0
   -9.5283    5.6534   -0.0000 N   0  0  0  0  0  0  0  0  0  0  0  0
   -8.2328    3.4038   -0.0000 C   0  0  0  0  0  0  0  0  0  0  0  0
  -10.8357    4.9232   -0.0000 C   0  0  0  0  0  0  0  0  0  0  0  0
   -9.5401    2.6736   -0.0000 C   0  0  0  0  0  0  0  0  0  0  0  0
   -6.9490    2.6618   -0.0000 C   0  0  0  0  0  0  0  0  0  0  0  0
  -10.8475    3.4392   -0.0000 O   0  0  0  0  0  0  0  0  0  0  0  0
  -12.1430    5.6887   -0.0000 C   0  0  0  0  0  0  0  0  0  0  0  0
  -13.4504    4.9585   -0.0000 N   0  0  0  0  0  0  0  0  0  0  0  0
  -12.1548    7.1963   -0.0000 C   0  0  0  0  0  0  0  0  0  0  0  0
  -14.7577    5.7241   -0.0000 C   0  0  0  0  0  0  0  0  0  0  0  0
  -13.4622    7.9619   -0.0000 O   0  0  0  0  0  0  0  0  0  0  0  0
  -14.7695    7.2316   -0.0000 O   0  0  0  0  0  0  0  0  0  0  0  0
  -16.0651    4.9938   -0.0000 O   0  0  0  0  0  0  0  0  0  0  0  0
  -17.3724    5.7594   -0.0000 C   0  0  0  0  0  0  0  0  0  0  0  0
  -16.6422    7.0667   -0.0000 C   0  0  0  0  0  0  0  0  0  0  0  0
  -18.1380    4.4756   -0.0000 C   0  0  0  0  0  0  0  0  0  0  0  0
  -18.6798    6.5132   -0.0000 C   0  0  0  0  0  0  0  0  0  0  0  0
  1  2  2  0  0  0  0
  2  3  1  0  0  0  0
  2  4  1  0  0  0  0
  3  5  1  0  0  0  0
  4  6  1  0  0  0  0
  4  7  1  6  0  0  0
  7  8  1  0  0  0  0
  8  9  1  6  0  0  0
  8 10  1  0  0  0  0
  9 11  1  0  0  0  0
 10 12  2  0  0  0  0
 11 13  2  0  0  0  0
 11 14  1  0  0  0  0
 12 15  1  0  0  0  0
 14 16  1  1  0  0  0
 14 17  1  0  0  0  0
 15 18  2  0  0  0  0
 15 19  1  0  0  0  0
 16 20  1  0  0  0  0
 17 21  1  0  0  0  0
 19 22  1  0  0  0  0
 20 23  2  0  0  0  0
 20 24  1  0  0  0  0
 21 25  1  0  0  0  0
 21 26  1  0  0  0  0
 22 27  1  0  0  0  0
 24 28  1  6  0  0  0
 24 29  1  0  0  0  0
 28 30  1  0  0  0  0
 29 31  1  0  0  0  0
 29 32  1  0  0  0  0
 30 33  2  0  0  0  0
 30 34  1  0  0  0  0
 34 35  1  1  0  0  0
 34 36  1  0  0  0  0
 35 37  1  0  0  0  0
 36 38  1  0  0  0  0
 37 39  2  0  0  0  0
 37 40  1  0  0  0  0
 40 41  1  0  0  0  0
 41 42  1  0  0  0  0
 41 43  1  0  0  0  0
 41 44  1  0  0  0  0
  5  6  1  0  0  0  0
M  END
>  <MolRegNo>
399193

>  <m>
=

>  <Value>
1.0e5

>  <Unit>
nM

>  <Type>
IC50

>  <Ligand Efficiency>


>  <Binding Efficiency>


>  <Surface Efficiency>


>  <Assay Index>
298649

>  <Assay Category>


>  <Assay Organism>
SARS coronavirus

>  <Target ID>
100499

>  <Target Name>
SARS coronavirus

>  <Target Organism>
SARS coronavirus

>  <Target Description>
Target is a complete organism

>  <Sequence Accession>


>  <Reference>
Bioorg. Med. Chem. Lett. 17 (21), 5876-5880 (2007)

>  <Pubmed ID>
17855091

>  <DOI>
10.1016/j.bmcl.2007.08.031

>  <InChI-Key>
JQGRQEJSWFZWOD-ZMNKMHGQSA-N

>  <Molecular Formula>
C30H51N5O9

>  <Monoisotopic Mass>
625.368680

>  <Druglikeness>
-64.271

$$$$
Compound 293
Actelion Java MolfileCreator 1.0

 23 25  0  0  0  0  0  0  0  0999 V2000
    0.0000   -0.0000   -0.0000 Cl  0  0  0  0  0  0  0  0  0  0  0  0
    1.2946    0.7602   -0.0000 C   0  0  0  0  0  0  0  0  0  0  0  0
    1.2828    2.2805   -0.0000 C   0  0  0  0  0  0  0  0  0  0  0  0
    2.5893    0.0238   -0.0000 C   0  0  0  0  0  0  0  0  0  0  0  0
    2.5774    3.0525   -0.0000 C   0  0  0  0  0  0  0  0  0  0  0  0
    3.8839    0.7839   -0.0000 C   0  0  0  0  0  0  0  0  0  0  0  0
    3.8720    2.3042   -0.0000 C   0  0  0  0  0  0  0  0  0  0  0  0
    5.1667    3.0762   -0.0000 C   0  0  0  0  0  0  0  0  0  0  0  0
    6.4613    2.3280   -0.0000 N   0  0  0  0  0  0  0  0  0  0  0  0
    7.7559    3.1000   -0.0000 C   0  0  0  0  0  0  0  0  0  0  0  0
    9.0506    2.3517   -0.0000 C   0  0  0  0  0  0  0  0  0  0  0  0
   10.3452    3.1238   -0.0000 O   0  0  0  0  0  0  0  0  0  0  0  0
    9.0387    0.8552   -0.0000 C   0  0  0  0  0  0  0  0  0  0  0  0
   11.6399    2.3755   -0.0000 C   0  0  0  0  0  0  0  0  0  0  0  0
   10.3333    0.1188   -0.0000 C   0  0  0  0  0  0  0  0  0  0  0  0
   11.6280    0.8789   -0.0000 C   0  0  0  0  0  0  0  0  0  0  0  0
   12.9345    3.1475   -0.0000 C   0  0  0  0  0  0  0  0  0  0  0  0
   10.3215   -1.3778   -0.0000 O   0  0  0  0  0  0  0  0  0  0  0  0
   12.9226    0.1425   -0.0000 C   0  0  0  0  0  0  0  0  0  0  0  0
   14.2291    2.3992   -0.0000 C   0  0  0  0  0  0  0  0  0  0  0  0
   12.9107   -1.3540   -0.0000 O   0  0  0  0  0  0  0  0  0  0  0  0
   14.2172    0.9027   -0.0000 C   0  0  0  0  0  0  0  0  0  0  0  0
   15.5119    0.1663   -0.0000 O   0  0  0  0  0  0  0  0  0  0  0  0
  1  2  1  0  0  0  0
  2  3  2  0  0  0  0
  2  4  1  0  0  0  0
  3  5  1  0  0  0  0
  4  6  2  0  0  0  0
  5  7  2  0  0  0  0
  7  8  1  0  0  0  0
  8  9  1  0  0  0  0
  9 10  1  0  0  0  0
 10 11  1  0  0  0  0
 11 12  1  0  0  0  0
 11 13  2  0  0  0  0
 12 14  1  0  0  0  0
 13 15  1  0  0  0  0
 14 16  2  0  0  0  0
 14 17  1  0  0  0  0
 15 18  2  0  0  0  0
 16 19  1  0  0  0  0
 17 20  2  0  0  0  0
 19 21  1  0  0  0  0
 19 22  2  0  0  0  0
 22 23  1  0  0  0  0
  6  7  1  0  0  0  0
 15 16  1  0  0  0  0
 20 22  1  0  0  0  0
M  END
>  <MolRegNo>
562541

>  <m>
>

>  <Value>
50000

>  <Unit>
nM

>  <Type>
IC50

>  <Ligand Efficiency>


>  <Binding Efficiency>


>  <Surface Efficiency>


>  <Assay Index>
426933

>  <Assay Category>


>  <Assay Organism>
SARS coronavirus

>  <Target ID>
101075

>  <Target Name>
Replicase polyprotein 1ab

>  <Target Organism>
SARS coronavirus

>  <Target Description>
Target is a single protein chain

>  <Sequence Accession>
P0C6X7

>  <Reference>
Bioorg. Med. Chem. Lett. 19 (16), 4538-4541 (2009)

>  <Pubmed ID>
19625187

>  <DOI>
10.1016/j.bmcl.2009.07.009

>  <InChI-Key>
JROPJZCFMVXIOG-UHFFFAOYSA-N

>  <Molecular Formula>
C17H14NO4Cl

>  <Monoisotopic Mass>
331.061136

>  <Druglikeness>
1.4529

$$$$
Compound 294
Actelion Java MolfileCreator 1.0

 23 25  0  0  0  0  0  0  0  0999 V2000
    0.0000   -0.0000   -0.0000 Cl  0  0  0  0  0  0  0  0  0  0  0  0
    1.2946    0.7602   -0.0000 C   0  0  0  0  0  0  0  0  0  0  0  0
    1.2828    2.2805   -0.0000 C   0  0  0  0  0  0  0  0  0  0  0  0
    2.5893    0.0238   -0.0000 C   0  0  0  0  0  0  0  0  0  0  0  0
    2.5774    3.0525   -0.0000 C   0  0  0  0  0  0  0  0  0  0  0  0
    3.8839    0.7839   -0.0000 C   0  0  0  0  0  0  0  0  0  0  0  0
    3.8720    2.3042   -0.0000 C   0  0  0  0  0  0  0  0  0  0  0  0
    5.1667    3.0762   -0.0000 C   0  0  0  0  0  0  0  0  0  0  0  0
    6.4613    2.3280   -0.0000 N   0  0  0  0  0  0  0  0  0  0  0  0
    7.7559    3.1000   -0.0000 C   0  0  0  0  0  0  0  0  0  0  0  0
    9.0506    2.3517   -0.0000 C   0  0  0  0  0  0  0  0  0  0  0  0
   10.3452    3.1238   -0.0000 O   0  0  0  0  0  0  0  0  0  0  0  0
    9.0387    0.8552   -0.0000 C   0  0  0  0  0  0  0  0  0  0  0  0
   11.6399    2.3755   -0.0000 C   0  0  0  0  0  0  0  0  0  0  0  0
   10.3333    0.1188   -0.0000 C   0  0  0  0  0  0  0  0  0  0  0  0
   11.6280    0.8789   -0.0000 C   0  0  0  0  0  0  0  0  0  0  0  0
   12.9345    3.1475   -0.0000 C   0  0  0  0  0  0  0  0  0  0  0  0
   10.3215   -1.3778   -0.0000 O   0  0  0  0  0  0  0  0  0  0  0  0
   12.9226    0.1425   -0.0000 C   0  0  0  0  0  0  0  0  0  0  0  0
   14.2291    2.3992   -0.0000 C   0  0  0  0  0  0  0  0  0  0  0  0
   12.9107   -1.3540   -0.0000 O   0  0  0  0  0  0  0  0  0  0  0  0
   14.2172    0.9027   -0.0000 C   0  0  0  0  0  0  0  0  0  0  0  0
   15.5119    0.1663   -0.0000 O   0  0  0  0  0  0  0  0  0  0  0  0
  1  2  1  0  0  0  0
  2  3  2  0  0  0  0
  2  4  1  0  0  0  0
  3  5  1  0  0  0  0
  4  6  2  0  0  0  0
  5  7  2  0  0  0  0
  7  8  1  0  0  0  0
  8  9  1  0  0  0  0
  9 10  1  0  0  0  0
 10 11  1  0  0  0  0
 11 12  1  0  0  0  0
 11 13  2  0  0  0  0
 12 14  1  0  0  0  0
 13 15  1  0  0  0  0
 14 16  2  0  0  0  0
 14 17  1  0  0  0  0
 15 18  2  0  0  0  0
 16 19  1  0  0  0  0
 17 20  2  0  0  0  0
 19 21  1  0  0  0  0
 19 22  2  0  0  0  0
 22 23  1  0  0  0  0
  6  7  1  0  0  0  0
 15 16  1  0  0  0  0
 20 22  1  0  0  0  0
M  END
>  <MolRegNo>
562541

>  <m>
>

>  <Value>
50000

>  <Unit>
nM

>  <Type>
IC50

>  <Ligand Efficiency>


>  <Binding Efficiency>


>  <Surface Efficiency>


>  <Assay Index>
426934

>  <Assay Category>


>  <Assay Organism>
SARS coronavirus

>  <Target ID>
101075

>  <Target Name>
Replicase polyprotein 1ab

>  <Target Organism>
SARS coronavirus

>  <Target Description>
Target is a single protein chain

>  <Sequence Accession>
P0C6X7

>  <Reference>
Bioorg. Med. Chem. Lett. 19 (16), 4538-4541 (2009)

>  <Pubmed ID>
19625187

>  <DOI>
10.1016/j.bmcl.2009.07.009

>  <InChI-Key>
JROPJZCFMVXIOG-UHFFFAOYSA-N

>  <Molecular Formula>
C17H14NO4Cl

>  <Monoisotopic Mass>
331.061136

>  <Druglikeness>
1.4529

$$$$
Compound 295
Actelion Java MolfileCreator 1.0

 43 45  0  0  1  0  0  0  0  0999 V2000
    0.0000   -0.0000   -0.0000 F   0  0  0  0  0  0  0  0  0  0  0  0
   -1.0689    1.0570   -0.0000 C   0  0  0  0  0  0  0  0  0  0  0  0
   -2.5297    0.6888   -0.0000 C   0  0  0  0  0  0  0  0  0  0  0  0
   -0.7126    2.5297   -0.0000 C   0  0  0  0  0  0  0  0  0  0  0  0
   -3.5866    1.7458   -0.0000 C   0  0  0  0  0  0  0  0  0  0  0  0
   -1.7696    3.5866   -0.0000 C   0  0  0  0  0  0  0  0  0  0  0  0
   -3.2066    3.2066   -0.0000 C   0  0  0  0  0  0  0  0  0  0  0  0
   -4.2755    4.2636   -0.0000 C   0  0  0  0  0  0  0  0  0  0  0  0
   -4.2874    5.7719   -0.0000 C   0  0  0  0  0  0  0  0  0  0  0  0
   -5.5937    6.5320   -0.0000 N   0  0  0  0  0  0  0  0  0  0  0  0
   -2.9928    6.5320   -0.0000 C   0  0  0  0  0  0  0  0  0  0  0  0
   -6.9001    5.7956   -0.0000 C   0  0  0  0  0  0  0  0  0  0  0  0
   -3.0047    8.0403   -0.0000 O   0  0  0  0  0  0  0  0  0  0  0  0
   -1.7102    5.7956   -0.0000 N   0  0  0  0  0  0  0  0  0  0  0  0
   -6.9120    4.3111   -0.0000 O   0  0  0  0  0  0  0  0  0  0  0  0
   -8.2184    6.5557   -0.0000 C   0  0  0  0  0  0  0  0  0  0  0  0
   -0.4275    6.5557   -0.0000 C   0  0  0  0  0  0  0  0  0  0  0  0
   -9.5248    5.8194   -0.0000 N   0  0  0  0  0  0  0  0  0  0  0  0
   -8.2303    8.0640   -0.0000 C   0  0  0  0  0  0  0  0  0  0  0  0
    0.8551    5.8194   -0.0000 C   0  0  0  0  0  0  0  0  0  0  0  0
   -0.4394    8.0640   -0.0000 C   0  0  0  0  0  0  0  0  0  0  0  0
  -10.8312    6.5795   -0.0000 C   0  0  0  0  0  0  0  0  0  0  0  0
   -9.5367    8.8241   -0.0000 C   0  0  0  0  0  0  0  0  0  0  0  0
   -6.9358    8.8241   -0.0000 C   0  0  0  0  0  0  0  0  0  0  0  0
    2.0309    6.5201   -0.0000 C   0  0  0  0  0  0  0  0  0  0  0  0
    0.8432    8.8241   -0.0000 C   0  0  0  0  0  0  0  0  0  0  0  0
  -10.8431    8.0878   -0.0000 O   0  0  0  0  0  0  0  0  0  0  0  0
  -12.1376    5.8432   -0.0000 C   0  0  0  0  0  0  0  0  0  0  0  0
    3.4441    5.8432   -0.0000 C   0  0  0  0  0  0  0  0  0  0  0  0
    0.9857   10.3443   -0.0000 C   0  0  0  0  0  0  0  0  0  0  0  0
    2.2090    8.2422   -0.0000 C   0  0  0  0  0  0  0  0  0  0  0  0
  -12.3039    4.3586   -0.0000 N   0  0  0  0  0  0  0  0  0  0  0  0
  -13.5390    6.4726   -0.0000 C   0  0  0  0  0  0  0  0  0  0  0  0
    3.4323    4.3586   -0.0000 O   0  0  0  0  0  0  0  0  0  0  0  0
    4.7387    6.6032   -0.0000 O   0  0  0  0  0  0  0  0  0  0  0  0
   -0.1425   11.3538   -0.0000 O   0  0  0  0  0  0  0  0  0  0  0  0
    2.4465   10.6649   -0.0000 N   0  0  0  0  0  0  0  0  0  0  0  0
    3.1947    9.3704   -0.0000 C   0  0  0  0  0  0  0  0  0  0  0  0
  -13.7884    4.0617   -0.0000 O   0  0  0  0  0  0  0  0  0  0  0  0
  -14.5485    5.3681   -0.0000 C   0  0  0  0  0  0  0  0  0  0  0  0
    6.0213    5.8669   -0.0000 C   0  0  0  0  0  0  0  0  0  0  0  0
  -16.0449    5.5344   -0.0000 C   0  0  0  0  0  0  0  0  0  0  0  0
    7.3039    6.6270   -0.0000 C   0  0  0  0  0  0  0  0  0  0  0  0
  1  2  1  0  0  0  0
  2  3  2  0  0  0  0
  2  4  1  0  0  0  0
  3  5  1  0  0  0  0
  4  6  2  0  0  0  0
  5  7  2  0  0  0  0
  7  8  1  0  0  0  0
  8  9  1  0  0  0  0
  9 10  1  6  0  0  0
  9 11  1  0  0  0  0
 10 12  1  0  0  0  0
 11 13  2  0  0  0  0
 11 14  1  0  0  0  0
 12 15  2  0  0  0  0
 12 16  1  0  0  0  0
 17 14  1  1  0  0  0
 16 18  1  1  0  0  0
 16 19  1  0  0  0  0
 17 20  1  0  0  0  0
 17 21  1  0  0  0  0
 18 22  1  0  0  0  0
 19 23  1  0  0  0  0
 19 24  1  0  0  0  0
 20 25  2  0  0  0  0
 26 21  1  1  0  0  0
 22 27  2  0  0  0  0
 22 28  1  0  0  0  0
 25 29  1  0  0  0  0
 26 30  1  0  0  0  0
 26 31  1  0  0  0  0
 28 32  2  0  0  0  0
 28 33  1  0  0  0  0
 29 34  2  0  0  0  0
 29 35  1  0  0  0  0
 30 36  2  0  0  0  0
 30 37  1  0  0  0  0
 31 38  1  0  0  0  0
 32 39  1  0  0  0  0
 33 40  2  0  0  0  0
 35 41  1  0  0  0  0
 40 42  1  0  0  0  0
 41 43  1  0  0  0  0
  6  7  1  0  0  0  0
 37 38  1  0  0  0  0
 39 40  1  0  0  0  0
M  END
>  <MolRegNo>
24024

>  <m>


>  <Value>
0

>  <Unit>


>  <Type>
Activity

>  <Ligand Efficiency>


>  <Binding Efficiency>


>  <Surface Efficiency>


>  <Assay Index>
265857

>  <Assay Category>


>  <Assay Organism>
SARS coronavirus

>  <Target ID>
100499

>  <Target Name>
SARS coronavirus

>  <Target Organism>
SARS coronavirus

>  <Target Description>
Target is a complete organism

>  <Sequence Accession>


>  <Reference>
J. Med. Chem. 49 (16), 4971-4980 (2006)

>  <Pubmed ID>
16884309

>  <DOI>
10.1021/jm0603926

>  <InChI-Key>
JSJRYDPMCHPLOL-VBZBYZBJSA-N

>  <Molecular Formula>
C30H38N5O7F

>  <Monoisotopic Mass>
599.275528

>  <Druglikeness>
-3.958

$$$$
Compound 296
Actelion Java MolfileCreator 1.0

 43 45  0  0  1  0  0  0  0  0999 V2000
    0.0000   -0.0000   -0.0000 F   0  0  0  0  0  0  0  0  0  0  0  0
   -1.0689    1.0570   -0.0000 C   0  0  0  0  0  0  0  0  0  0  0  0
   -2.5297    0.6888   -0.0000 C   0  0  0  0  0  0  0  0  0  0  0  0
   -0.7126    2.5297   -0.0000 C   0  0  0  0  0  0  0  0  0  0  0  0
   -3.5866    1.7458   -0.0000 C   0  0  0  0  0  0  0  0  0  0  0  0
   -1.7696    3.5866   -0.0000 C   0  0  0  0  0  0  0  0  0  0  0  0
   -3.2066    3.2066   -0.0000 C   0  0  0  0  0  0  0  0  0  0  0  0
   -4.2755    4.2636   -0.0000 C   0  0  0  0  0  0  0  0  0  0  0  0
   -4.2874    5.7719   -0.0000 C   0  0  0  0  0  0  0  0  0  0  0  0
   -5.5937    6.5320   -0.0000 N   0  0  0  0  0  0  0  0  0  0  0  0
   -2.9928    6.5320   -0.0000 C   0  0  0  0  0  0  0  0  0  0  0  0
   -6.9001    5.7956   -0.0000 C   0  0  0  0  0  0  0  0  0  0  0  0
   -3.0047    8.0403   -0.0000 O   0  0  0  0  0  0  0  0  0  0  0  0
   -1.7102    5.7956   -0.0000 N   0  0  0  0  0  0  0  0  0  0  0  0
   -6.9120    4.3111   -0.0000 O   0  0  0  0  0  0  0  0  0  0  0  0
   -8.2184    6.5557   -0.0000 C   0  0  0  0  0  0  0  0  0  0  0  0
   -0.4275    6.5557   -0.0000 C   0  0  0  0  0  0  0  0  0  0  0  0
   -9.5248    5.8194   -0.0000 N   0  0  0  0  0  0  0  0  0  0  0  0
   -8.2303    8.0640   -0.0000 C   0  0  0  0  0  0  0  0  0  0  0  0
    0.8551    5.8194   -0.0000 C   0  0  0  0  0  0  0  0  0  0  0  0
   -0.4394    8.0640   -0.0000 C   0  0  0  0  0  0  0  0  0  0  0  0
  -10.8312    6.5795   -0.0000 C   0  0  0  0  0  0  0  0  0  0  0  0
   -9.5367    8.8241   -0.0000 C   0  0  0  0  0  0  0  0  0  0  0  0
   -6.9358    8.8241   -0.0000 C   0  0  0  0  0  0  0  0  0  0  0  0
    2.0309    6.5201   -0.0000 C   0  0  0  0  0  0  0  0  0  0  0  0
    0.8432    8.8241   -0.0000 C   0  0  0  0  0  0  0  0  0  0  0  0
  -10.8431    8.0878   -0.0000 O   0  0  0  0  0  0  0  0  0  0  0  0
  -12.1376    5.8432   -0.0000 C   0  0  0  0  0  0  0  0  0  0  0  0
    3.4441    5.8432   -0.0000 C   0  0  0  0  0  0  0  0  0  0  0  0
    0.9857   10.3443   -0.0000 C   0  0  0  0  0  0  0  0  0  0  0  0
    2.2090    8.2422   -0.0000 C   0  0  0  0  0  0  0  0  0  0  0  0
  -12.3039    4.3586   -0.0000 N   0  0  0  0  0  0  0  0  0  0  0  0
  -13.5390    6.4726   -0.0000 C   0  0  0  0  0  0  0  0  0  0  0  0
    3.4323    4.3586   -0.0000 O   0  0  0  0  0  0  0  0  0  0  0  0
    4.7387    6.6032   -0.0000 O   0  0  0  0  0  0  0  0  0  0  0  0
   -0.1425   11.3538   -0.0000 O   0  0  0  0  0  0  0  0  0  0  0  0
    2.4465   10.6649   -0.0000 N   0  0  0  0  0  0  0  0  0  0  0  0
    3.1947    9.3704   -0.0000 C   0  0  0  0  0  0  0  0  0  0  0  0
  -13.7884    4.0617   -0.0000 O   0  0  0  0  0  0  0  0  0  0  0  0
  -14.5485    5.3681   -0.0000 C   0  0  0  0  0  0  0  0  0  0  0  0
    6.0213    5.8669   -0.0000 C   0  0  0  0  0  0  0  0  0  0  0  0
  -16.0449    5.5344   -0.0000 C   0  0  0  0  0  0  0  0  0  0  0  0
    7.3039    6.6270   -0.0000 C   0  0  0  0  0  0  0  0  0  0  0  0
  1  2  1  0  0  0  0
  2  3  2  0  0  0  0
  2  4  1  0  0  0  0
  3  5  1  0  0  0  0
  4  6  2  0  0  0  0
  5  7  2  0  0  0  0
  7  8  1  0  0  0  0
  8  9  1  0  0  0  0
  9 10  1  6  0  0  0
  9 11  1  0  0  0  0
 10 12  1  0  0  0  0
 11 13  2  0  0  0  0
 11 14  1  0  0  0  0
 12 15  2  0  0  0  0
 12 16  1  0  0  0  0
 17 14  1  1  0  0  0
 16 18  1  1  0  0  0
 16 19  1  0  0  0  0
 17 20  1  0  0  0  0
 17 21  1  0  0  0  0
 18 22  1  0  0  0  0
 19 23  1  0  0  0  0
 19 24  1  0  0  0  0
 20 25  2  0  0  0  0
 26 21  1  1  0  0  0
 22 27  2  0  0  0  0
 22 28  1  0  0  0  0
 25 29  1  0  0  0  0
 26 30  1  0  0  0  0
 26 31  1  0  0  0  0
 28 32  2  0  0  0  0
 28 33  1  0  0  0  0
 29 34  2  0  0  0  0
 29 35  1  0  0  0  0
 30 36  2  0  0  0  0
 30 37  1  0  0  0  0
 31 38  1  0  0  0  0
 32 39  1  0  0  0  0
 33 40  2  0  0  0  0
 35 41  1  0  0  0  0
 40 42  1  0  0  0  0
 41 43  1  0  0  0  0
  6  7  1  0  0  0  0
 37 38  1  0  0  0  0
 39 40  1  0  0  0  0
M  END
>  <MolRegNo>
24024

>  <m>
>

>  <Value>
10000

>  <Unit>
nM

>  <Type>
Ki

>  <Ligand Efficiency>


>  <Binding Efficiency>


>  <Surface Efficiency>


>  <Assay Index>
265844

>  <Assay Category>


>  <Assay Organism>
SARS coronavirus

>  <Target ID>
20012

>  <Target Name>
SARS coronavirus 3C-like proteinase

>  <Target Organism>
SARS coronavirus

>  <Target Description>
Target is a single protein chain

>  <Sequence Accession>
P0C6U8

>  <Reference>
J. Med. Chem. 49 (16), 4971-4980 (2006)

>  <Pubmed ID>
16884309

>  <DOI>
10.1021/jm0603926

>  <InChI-Key>
JSJRYDPMCHPLOL-VBZBYZBJSA-N

>  <Molecular Formula>
C30H38N5O7F

>  <Monoisotopic Mass>
599.275528

>  <Druglikeness>
-3.958

$$$$
Compound 297
Actelion Java MolfileCreator 1.0

 32 34  0  0  0  0  0  0  0  0999 V2000
    0.0000   -0.0000   -0.0000 O   0  0  0  0  0  0  0  0  0  0  0  0
   -0.0119    1.5072   -0.0000 C   0  0  0  0  0  0  0  0  0  0  0  0
   -1.3174    2.2668   -0.0000 N   0  0  0  0  0  0  0  0  0  0  0  0
    1.2699    2.2668   -0.0000 C   0  0  0  0  0  0  0  0  0  0  0  0
   -1.3292    3.7740   -0.0000 C   0  0  0  0  0  0  0  0  0  0  0  0
   -2.6228    1.5310   -0.0000 C   0  0  0  0  0  0  0  0  0  0  0  0
    1.4123    3.7740   -0.0000 O   0  0  0  0  0  0  0  0  0  0  0  0
    2.6347    1.6853   -0.0000 C   0  0  0  0  0  0  0  0  0  0  0  0
   -0.0475    4.5336   -0.0000 C   0  0  0  0  0  0  0  0  0  0  0  0
   -2.6347    4.5336   -0.0000 C   0  0  0  0  0  0  0  0  0  0  0  0
   -2.6347    0.0475   -0.0000 C   0  0  0  0  0  0  0  0  0  0  0  0
   -3.9283    2.2905   -0.0000 C   0  0  0  0  0  0  0  0  0  0  0  0
    2.8602    4.1063   -0.0000 C   0  0  0  0  0  0  0  0  0  0  0  0
    3.6198    2.8127   -0.0000 C   0  0  0  0  0  0  0  0  0  0  0  0
   -0.0593    6.0527   -0.0000 C   0  0  0  0  0  0  0  0  0  0  0  0
   -2.6466    6.0527   -0.0000 C   0  0  0  0  0  0  0  0  0  0  0  0
   -1.3530   -0.6765   -0.0000 C   0  0  0  0  0  0  0  0  0  0  0  0
   -3.9402   -0.6883   -0.0000 C   0  0  0  0  0  0  0  0  0  0  0  0
   -3.9402    3.7978   -0.0000 O   0  0  0  0  0  0  0  0  0  0  0  0
   -5.2338    1.5547   -0.0000 N   0  0  0  0  0  0  0  0  0  0  0  0
   -1.3648    6.8123   -0.0000 C   0  0  0  0  0  0  0  0  0  0  0  0
   -1.3530   -2.1600   -0.0000 N   0  0  0  0  0  0  0  0  0  0  0  0
   -3.9521   -2.1719   -0.0000 C   0  0  0  0  0  0  0  0  0  0  0  0
   -6.5393    2.3143   -0.0000 C   0  0  0  0  0  0  0  0  0  0  0  0
   -1.3767    8.3195   -0.0000 C   0  0  0  0  0  0  0  0  0  0  0  0
   -2.6584   -2.9077   -0.0000 C   0  0  0  0  0  0  0  0  0  0  0  0
   -7.8448    1.5785   -0.0000 C   0  0  0  0  0  0  0  0  0  0  0  0
   -6.5512    3.8215   -0.0000 C   0  0  0  0  0  0  0  0  0  0  0  0
   -7.8329    3.0857   -0.0000 C   0  0  0  0  0  0  0  0  0  0  0  0
   -2.6822    9.0791   -0.0000 C   0  0  0  0  0  0  0  0  0  0  0  0
   -0.0949    9.0791   -0.0000 C   0  0  0  0  0  0  0  0  0  0  0  0
   -1.3767    9.8267   -0.0000 C   0  0  0  0  0  0  0  0  0  0  0  0
  1  2  2  0  0  0  0
  2  3  1  0  0  0  0
  2  4  1  0  0  0  0
  3  5  1  0  0  0  0
  6  3  1  6  0  0  0
  4  7  1  0  0  0  0
  4  8  2  0  0  0  0
  5  9  2  0  0  0  0
  5 10  1  0  0  0  0
  6 11  1  0  0  0  0
  6 12  1  0  0  0  0
  7 13  1  0  0  0  0
  8 14  1  0  0  0  0
  9 15  1  0  0  0  0
 10 16  2  0  0  0  0
 11 17  2  0  0  0  0
 11 18  1  0  0  0  0
 12 19  2  0  0  0  0
 12 20  1  0  0  0  0
 15 21  2  0  0  0  0
 17 22  1  0  0  0  0
 18 23  2  0  0  0  0
 20 24  1  0  0  0  0
 21 25  1  0  0  0  0
 22 26  2  0  0  0  0
 24 27  1  0  0  0  0
 24 28  1  0  0  0  0
 24 29  1  0  0  0  0
 25 30  1  0  0  0  0
 25 31  1  0  0  0  0
 25 32  1  0  0  0  0
 13 14  2  0  0  0  0
 16 21  1  0  0  0  0
 23 26  1  0  0  0  0
M  END
>  <MolRegNo>
1510779

>  <m>
=

>  <Value>
12900

>  <Unit>
nM

>  <Type>
EC50

>  <Ligand Efficiency>


>  <Binding Efficiency>


>  <Surface Efficiency>


>  <Assay Index>
751789

>  <Assay Category>


>  <Assay Organism>
SARS coronavirus

>  <Target ID>
100499

>  <Target Name>
SARS coronavirus

>  <Target Organism>
SARS coronavirus

>  <Target Description>
Target is a complete organism

>  <Sequence Accession>


>  <Reference>
J. Med. Chem. 56 (2), 534-546 (2013)

>  <Pubmed ID>
23231439

>  <DOI>
10.1021/jm301580n

>  <InChI-Key>
JXGIYKRRPGCLFV-JOCHJYFZSA-N

>  <Molecular Formula>
C26H31N3O3

>  <Monoisotopic Mass>
433.236542

>  <Druglikeness>
3.0039

$$$$
Compound 298
Actelion Java MolfileCreator 1.0

 22 23  0  0  0  0  0  0  0  0999 V2000
    0.0000   -0.0000   -0.0000 O   0  0  0  0  0  0  0  0  0  0  0  0
    1.2881   -0.7445   -0.0000 C   0  0  0  0  0  0  0  0  0  0  0  0
    1.2763   -2.2336   -0.0000 O   0  0  0  0  0  0  0  0  0  0  0  0
    2.5763    0.0236   -0.0000 C   0  0  0  0  0  0  0  0  0  0  0  0
    2.5645    1.5363   -0.0000 O   0  0  0  0  0  0  0  0  0  0  0  0
    3.8644   -0.7209   -0.0000 C   0  0  0  0  0  0  0  0  0  0  0  0
    5.1525    0.0473   -0.0000 C   0  0  0  0  0  0  0  0  0  0  0  0
    5.1407    1.5599   -0.0000 O   0  0  0  0  0  0  0  0  0  0  0  0
    6.4407   -0.6972   -0.0000 C   0  0  0  0  0  0  0  0  0  0  0  0
    7.7288    0.0709   -0.0000 C   0  0  0  0  0  0  0  0  0  0  0  0
    6.4289   -2.1863   -0.0000 C   0  0  0  0  0  0  0  0  0  0  0  0
    7.7170    1.5836   -0.0000 O   0  0  0  0  0  0  0  0  0  0  0  0
    9.0169   -0.6736   -0.0000 C   0  0  0  0  0  0  0  0  0  0  0  0
    7.7170   -2.9190   -0.0000 C   0  0  0  0  0  0  0  0  0  0  0  0
    6.4052    2.3399   -0.0000 C   0  0  0  0  0  0  0  0  0  0  0  0
    9.0051   -2.1626   -0.0000 C   0  0  0  0  0  0  0  0  0  0  0  0
    6.3934    3.8526   -0.0000 C   0  0  0  0  0  0  0  0  0  0  0  0
    5.0816    4.6089   -0.0000 C   0  0  0  0  0  0  0  0  0  0  0  0
    7.6815    4.6089   -0.0000 C   0  0  0  0  0  0  0  0  0  0  0  0
    5.0698    6.1216   -0.0000 C   0  0  0  0  0  0  0  0  0  0  0  0
    7.6697    6.1216   -0.0000 C   0  0  0  0  0  0  0  0  0  0  0  0
    6.3580    6.8779   -0.0000 C   0  0  0  0  0  0  0  0  0  0  0  0
  1  2  2  0  0  0  0
  2  3  1  0  0  0  0
  2  4  1  0  0  0  0
  4  5  1  0  0  0  0
  4  6  2  0  0  0  0
  6  7  1  0  0  0  0
  7  8  2  0  0  0  0
  7  9  1  0  0  0  0
  9 10  2  0  0  0  0
  9 11  1  0  0  0  0
 10 12  1  0  0  0  0
 10 13  1  0  0  0  0
 11 14  2  0  0  0  0
 12 15  1  0  0  0  0
 13 16  2  0  0  0  0
 15 17  1  0  0  0  0
 17 18  2  0  0  0  0
 17 19  1  0  0  0  0
 18 20  1  0  0  0  0
 19 21  2  0  0  0  0
 20 22  2  0  0  0  0
 14 16  1  0  0  0  0
 21 22  1  0  0  0  0
M  END
>  <MolRegNo>
478460

>  <m>
>

>  <Value>
50000

>  <Unit>
nM

>  <Type>
IC50

>  <Ligand Efficiency>


>  <Binding Efficiency>


>  <Surface Efficiency>


>  <Assay Index>
414789

>  <Assay Category>


>  <Assay Organism>
SARS coronavirus

>  <Target ID>
101075

>  <Target Name>
Replicase polyprotein 1ab

>  <Target Organism>
SARS coronavirus

>  <Target Description>
Target is a single protein chain

>  <Sequence Accession>
P0C6X7

>  <Reference>
Bioorg. Med. Chem. Lett. 19 (6), 1636-1638 (2009)

>  <Pubmed ID>
19233643

>  <DOI>
10.1016/j.bmcl.2009.02.010

>  <InChI-Key>
JXKICJGRKUURQN-UHFFFAOYSA-N

>  <Molecular Formula>
C17H14O5

>  <Monoisotopic Mass>
298.084125

>  <Druglikeness>
0.9175

$$$$
Compound 299
Actelion Java MolfileCreator 1.0

 22 23  0  0  0  0  0  0  0  0999 V2000
    0.0000   -0.0000   -0.0000 O   0  0  0  0  0  0  0  0  0  0  0  0
    1.2881   -0.7445   -0.0000 C   0  0  0  0  0  0  0  0  0  0  0  0
    1.2763   -2.2336   -0.0000 O   0  0  0  0  0  0  0  0  0  0  0  0
    2.5763    0.0236   -0.0000 C   0  0  0  0  0  0  0  0  0  0  0  0
    2.5645    1.5363   -0.0000 O   0  0  0  0  0  0  0  0  0  0  0  0
    3.8644   -0.7209   -0.0000 C   0  0  0  0  0  0  0  0  0  0  0  0
    5.1525    0.0473   -0.0000 C   0  0  0  0  0  0  0  0  0  0  0  0
    5.1407    1.5599   -0.0000 O   0  0  0  0  0  0  0  0  0  0  0  0
    6.4407   -0.6972   -0.0000 C   0  0  0  0  0  0  0  0  0  0  0  0
    7.7288    0.0709   -0.0000 C   0  0  0  0  0  0  0  0  0  0  0  0
    6.4289   -2.1863   -0.0000 C   0  0  0  0  0  0  0  0  0  0  0  0
    7.7170    1.5836   -0.0000 O   0  0  0  0  0  0  0  0  0  0  0  0
    9.0169   -0.6736   -0.0000 C   0  0  0  0  0  0  0  0  0  0  0  0
    7.7170   -2.9190   -0.0000 C   0  0  0  0  0  0  0  0  0  0  0  0
    6.4052    2.3399   -0.0000 C   0  0  0  0  0  0  0  0  0  0  0  0
    9.0051   -2.1626   -0.0000 C   0  0  0  0  0  0  0  0  0  0  0  0
    6.3934    3.8526   -0.0000 C   0  0  0  0  0  0  0  0  0  0  0  0
    5.0816    4.6089   -0.0000 C   0  0  0  0  0  0  0  0  0  0  0  0
    7.6815    4.6089   -0.0000 C   0  0  0  0  0  0  0  0  0  0  0  0
    5.0698    6.1216   -0.0000 C   0  0  0  0  0  0  0  0  0  0  0  0
    7.6697    6.1216   -0.0000 C   0  0  0  0  0  0  0  0  0  0  0  0
    6.3580    6.8779   -0.0000 C   0  0  0  0  0  0  0  0  0  0  0  0
  1  2  2  0  0  0  0
  2  3  1  0  0  0  0
  2  4  1  0  0  0  0
  4  5  1  0  0  0  0
  4  6  2  0  0  0  0
  6  7  1  0  0  0  0
  7  8  2  0  0  0  0
  7  9  1  0  0  0  0
  9 10  2  0  0  0  0
  9 11  1  0  0  0  0
 10 12  1  0  0  0  0
 10 13  1  0  0  0  0
 11 14  2  0  0  0  0
 12 15  1  0  0  0  0
 13 16  2  0  0  0  0
 15 17  1  0  0  0  0
 17 18  2  0  0  0  0
 17 19  1  0  0  0  0
 18 20  1  0  0  0  0
 19 21  2  0  0  0  0
 20 22  2  0  0  0  0
 14 16  1  0  0  0  0
 21 22  1  0  0  0  0
M  END
>  <MolRegNo>
478460

>  <m>
>

>  <Value>
50000

>  <Unit>
nM

>  <Type>
IC50

>  <Ligand Efficiency>


>  <Binding Efficiency>


>  <Surface Efficiency>


>  <Assay Index>
414790

>  <Assay Category>


>  <Assay Organism>
SARS coronavirus

>  <Target ID>
101075

>  <Target Name>
Replicase polyprotein 1ab

>  <Target Organism>
SARS coronavirus

>  <Target Description>
Target is a single protein chain

>  <Sequence Accession>
P0C6X7

>  <Reference>
Bioorg. Med. Chem. Lett. 19 (6), 1636-1638 (2009)

>  <Pubmed ID>
19233643

>  <DOI>
10.1016/j.bmcl.2009.02.010

>  <InChI-Key>
JXKICJGRKUURQN-UHFFFAOYSA-N

>  <Molecular Formula>
C17H14O5

>  <Monoisotopic Mass>
298.084125

>  <Druglikeness>
0.9175

$$$$
Compound 300
Actelion Java MolfileCreator 1.0

 21 23  0  0  0  0  0  0  0  0999 V2000
    0.0000   -0.0000   -0.0000 F   0  0  0  0  0  0  0  0  0  0  0  0
   -0.0124   -1.2476   -0.0000 C   0  0  0  0  0  0  0  0  0  0  0  0
    1.3341   -2.0382   -0.0000 C   0  0  0  0  0  0  0  0  0  0  0  0
   -1.3958   -2.0382   -0.0000 C   0  0  0  0  0  0  0  0  0  0  0  0
    2.8164   -1.5441   -0.0000 N   0  0  0  0  0  0  0  0  0  0  0  0
    1.3217   -3.5946   -0.0000 C   0  0  0  0  0  0  0  0  0  0  0  0
   -1.4082   -3.5946   -0.0000 N   0  0  0  0  0  0  0  0  0  0  0  0
    3.7181   -2.7793   -0.0000 C   0  0  0  0  0  0  0  0  0  0  0  0
    3.2858   -0.0371   -0.0000 C   0  0  0  0  0  0  0  0  0  0  0  0
    2.8040   -4.0640   -0.0000 N   0  0  0  0  0  0  0  0  0  0  0  0
   -0.0494   -4.3851   -0.0000 C   0  0  0  0  0  0  0  0  0  0  0  0
    4.7928    0.3335   -0.0000 C   0  0  0  0  0  0  0  0  0  0  0  0
    2.4334    1.2847   -0.0000 C   0  0  0  0  0  0  0  0  0  0  0  0
   -0.0618   -5.6327   -0.0000 N   0  0  0  0  0  0  0  0  0  0  0  0
    4.8916    1.9146   -0.0000 C   0  0  0  0  0  0  0  0  0  0  0  0
    1.1611    1.3835   -0.0000 O   0  0  0  0  0  0  0  0  0  0  0  0
    3.4340    2.4952   -0.0000 C   0  0  0  0  0  0  0  0  0  0  0  0
    6.2133    2.7546   -0.0000 C   0  0  0  0  0  0  0  0  0  0  0  0
    3.1128    3.7304   -0.0000 O   0  0  0  0  0  0  0  0  0  0  0  0
    7.5844    2.0258   -0.0000 C   0  0  0  0  0  0  0  0  0  0  0  0
    8.6467    2.7052   -0.0000 O   0  0  0  0  0  0  0  0  0  0  0  0
  1  2  1  0  0  0  0
  2  3  2  0  0  0  0
  2  4  1  0  0  0  0
  3  5  1  0  0  0  0
  3  6  1  0  0  0  0
  4  7  2  0  0  0  0
  5  8  1  0  0  0  0
  9  5  1  1  0  0  0
  6 10  1  0  0  0  0
  6 11  2  0  0  0  0
  9 12  1  0  0  0  0
  9 13  1  0  0  0  0
 11 14  1  0  0  0  0
 12 15  2  0  0  0  0
 13 16  1  6  0  0  0
 13 17  1  0  0  0  0
 15 18  1  0  0  0  0
 17 19  1  6  0  0  0
 18 20  1  0  0  0  0
 20 21  1  0  0  0  0
  7 11  1  0  0  0  0
  8 10  2  0  0  0  0
 15 17  1  0  0  0  0
M  END
>  <MolRegNo>
1957399

>  <m>


>  <Value>
0

>  <Unit>


>  <Type>
Activity

>  <Ligand Efficiency>


>  <Binding Efficiency>


>  <Surface Efficiency>


>  <Assay Index>
956765

>  <Assay Category>


>  <Assay Organism>
SARS coronavirus

>  <Target ID>
100499

>  <Target Name>
SARS coronavirus

>  <Target Organism>
SARS coronavirus

>  <Target Description>
Target is a complete organism

>  <Sequence Accession>


>  <Reference>
Bioorg. Med. Chem. 23 (17), 5496-5501 (2015)

>  <Pubmed ID>
26260336

>  <DOI>
10.1016/j.bmc.2015.07.039

>  <InChI-Key>
JYARFUJLAWMXMD-ZHAHWJHGSA-N

>  <Molecular Formula>
C13H15N4O3F

>  <Monoisotopic Mass>
294.112819

>  <Druglikeness>
-1.0653

$$$$
Compound 301
Actelion Java MolfileCreator 1.0

 11 11  0  0  1  0  0  0  0  0999 V2000
    0.0000   -0.0000   -0.0000 O   0  0  0  0  0  0  0  0  0  0  0  0
   -0.0118    1.5130   -0.0000 C   0  0  0  0  0  0  0  0  0  0  0  0
   -1.3239    2.2695   -0.0000 O   0  0  0  0  0  0  0  0  0  0  0  0
    1.2766    2.2695   -0.0000 C   0  0  0  0  0  0  0  0  0  0  0  0
   -1.3357    3.7825   -0.0000 C   0  0  0  0  0  0  0  0  0  0  0  0
    2.0095    3.5816   -0.0000 O   0  0  0  0  0  0  0  0  0  0  0  0
    2.7660    2.2813   -0.0000 C   0  0  0  0  0  0  0  0  0  0  0  0
    4.0426    1.5485   -0.0000 C   0  0  0  0  0  0  0  0  0  0  0  0
    4.0308    0.0591   -0.0000 O   0  0  0  0  0  0  0  0  0  0  0  0
    5.3310    2.3050   -0.0000 O   0  0  0  0  0  0  0  0  0  0  0  0
    5.3192    3.8180   -0.0000 C   0  0  0  0  0  0  0  0  0  0  0  0
  1  2  2  0  0  0  0
  2  3  1  0  0  0  0
  4  2  1  1  0  0  0
  3  5  1  0  0  0  0
  4  6  1  0  0  0  0
  4  7  1  0  0  0  0
  7  8  1  1  0  0  0
  8  9  2  0  0  0  0
  8 10  1  0  0  0  0
 10 11  1  0  0  0  0
  6  7  1  0  0  0  0
M  END
>  <MolRegNo>
333520

>  <m>
<

>  <Value>
10

>  <Unit>
%

>  <Type>
Inhibition

>  <Ligand Efficiency>


>  <Binding Efficiency>


>  <Surface Efficiency>


>  <Assay Index>
254534

>  <Assay Category>


>  <Assay Organism>
SARS coronavirus

>  <Target ID>
20012

>  <Target Name>
SARS coronavirus 3C-like proteinase

>  <Target Organism>
SARS coronavirus

>  <Target Description>
Target is a single protein chain

>  <Sequence Accession>
P0C6U8

>  <Reference>
Bioorg. Med. Chem. Lett. 15 (24), 5365-5369 (2005)

>  <Pubmed ID>
16216498

>  <DOI>
10.1016/j.bmcl.2005.09.012

>  <InChI-Key>
KAGHUYFLGPUYKE-IMJSIDKUSA-N

>  <Molecular Formula>
C6H8O5

>  <Monoisotopic Mass>
160.037175

>  <Druglikeness>
-2.0553

$$$$
Compound 302
Actelion Java MolfileCreator 1.0

 17 17  0  0  0  0  0  0  0  0999 V2000
    0.0000   -0.0000   -0.0000 O   0  0  0  0  0  0  0  0  0  0  0  0
    1.2950   -0.7366   -0.0000 C   0  0  0  0  0  0  0  0  0  0  0  0
    2.5901    0.0238   -0.0000 O   0  0  0  0  0  0  0  0  0  0  0  0
    1.2832   -2.2337   -0.0000 N   0  0  0  0  0  0  0  0  0  0  0  0
    2.5782    1.5446   -0.0000 C   0  0  0  0  0  0  0  0  0  0  0  0
    2.0198   -3.5287   -0.0000 C   0  0  0  0  0  0  0  0  0  0  0  0
    0.5228   -3.5287   -0.0000 C   0  0  0  0  0  0  0  0  0  0  0  0
    3.8733    2.3049   -0.0000 C   0  0  0  0  0  0  0  0  0  0  0  0
    3.3148   -2.7683   -0.0000 C   0  0  0  0  0  0  0  0  0  0  0  0
    2.7446   -4.8238   -0.0000 C   0  0  0  0  0  0  0  0  0  0  0  0
   -0.7960   -4.2653   -0.0000 C   0  0  0  0  0  0  0  0  0  0  0  0
    3.3030   -1.2475   -0.0000 O   0  0  0  0  0  0  0  0  0  0  0  0
    4.6099   -3.5049   -0.0000 O   0  0  0  0  0  0  0  0  0  0  0  0
    1.9604   -6.1069   -0.0000 O   0  0  0  0  0  0  0  0  0  0  0  0
    4.2416   -4.8356   -0.0000 O   0  0  0  0  0  0  0  0  0  0  0  0
    5.9049   -2.7327   -0.0000 C   0  0  0  0  0  0  0  0  0  0  0  0
    4.9663   -6.1307   -0.0000 C   0  0  0  0  0  0  0  0  0  0  0  0
  1  2  2  0  0  0  0
  2  3  1  0  0  0  0
  2  4  1  0  0  0  0
  3  5  1  0  0  0  0
  4  6  1  0  0  0  0
  4  7  1  0  0  0  0
  5  8  1  0  0  0  0
  6  9  1  0  0  0  0
  6 10  1  0  0  0  0
  7 11  1  0  0  0  0
  9 12  2  0  0  0  0
  9 13  1  0  0  0  0
 10 14  2  0  0  0  0
 10 15  1  0  0  0  0
 13 16  1  0  0  0  0
 15 17  1  0  0  0  0
  6  7  1  0  0  0  0
M  END
>  <MolRegNo>
333517

>  <m>
<

>  <Value>
10

>  <Unit>
%

>  <Type>
Inhibition

>  <Ligand Efficiency>


>  <Binding Efficiency>


>  <Surface Efficiency>


>  <Assay Index>
254534

>  <Assay Category>


>  <Assay Organism>
SARS coronavirus

>  <Target ID>
20012

>  <Target Name>
SARS coronavirus 3C-like proteinase

>  <Target Organism>
SARS coronavirus

>  <Target Description>
Target is a single protein chain

>  <Sequence Accession>
P0C6U8

>  <Reference>
Bioorg. Med. Chem. Lett. 15 (24), 5365-5369 (2005)

>  <Pubmed ID>
16216498

>  <DOI>
10.1016/j.bmcl.2005.09.012

>  <InChI-Key>
KBCAZPFCOCQRPW-UHFFFAOYSA-N

>  <Molecular Formula>
C10H15NO6

>  <Monoisotopic Mass>
245.089939

>  <Druglikeness>
-14.631

$$$$
Compound 303
Actelion Java MolfileCreator 1.0

 23 26  0  0  0  0  0  0  0  0999 V2000
    0.0000   -0.0000   -0.0000 O   0  0  0  0  0  0  0  0  0  0  0  0
   -1.3064    0.7650   -0.0000 C   0  0  0  0  0  0  0  0  0  0  0  0
   -2.6128    0.0235   -0.0000 C   0  0  0  0  0  0  0  0  0  0  0  0
   -1.3182    2.2715   -0.0000 C   0  0  0  0  0  0  0  0  0  0  0  0
   -2.6246   -1.4594   -0.0000 O   0  0  0  0  0  0  0  0  0  0  0  0
   -3.9192    0.7886   -0.0000 C   0  0  0  0  0  0  0  0  0  0  0  0
   -2.6246    3.0247   -0.0000 C   0  0  0  0  0  0  0  0  0  0  0  0
   -0.0353    3.0247   -0.0000 C   0  0  0  0  0  0  0  0  0  0  0  0
   -3.9310    2.2950   -0.0000 O   0  0  0  0  0  0  0  0  0  0  0  0
   -5.2256    0.0471   -0.0000 C   0  0  0  0  0  0  0  0  0  0  0  0
   -2.6364    4.5312   -0.0000 C   0  0  0  0  0  0  0  0  0  0  0  0
    1.2476    2.2950   -0.0000 O   0  0  0  0  0  0  0  0  0  0  0  0
   -0.0471    4.5312   -0.0000 C   0  0  0  0  0  0  0  0  0  0  0  0
   -6.5320    0.8121   -0.0000 C   0  0  0  0  0  0  0  0  0  0  0  0
   -5.2374   -1.4359   -0.0000 C   0  0  0  0  0  0  0  0  0  0  0  0
   -1.3535    5.2845   -0.0000 C   0  0  0  0  0  0  0  0  0  0  0  0
   -7.8384    0.0706   -0.0000 C   0  0  0  0  0  0  0  0  0  0  0  0
   -6.5438   -2.1656   -0.0000 C   0  0  0  0  0  0  0  0  0  0  0  0
   -1.3653    6.7910   -0.0000 O   0  0  0  0  0  0  0  0  0  0  0  0
   -9.2743    0.5414   -0.0000 O   0  0  0  0  0  0  0  0  0  0  0  0
   -7.8502   -1.4123   -0.0000 C   0  0  0  0  0  0  0  0  0  0  0  0
  -10.1688   -0.6591   -0.0000 C   0  0  0  0  0  0  0  0  0  0  0  0
   -9.2861   -1.8596   -0.0000 O   0  0  0  0  0  0  0  0  0  0  0  0
  1  2  2  0  0  0  0
  2  3  1  0  0  0  0
  2  4  1  0  0  0  0
  3  5  1  0  0  0  0
  3  6  2  0  0  0  0
  4  7  2  0  0  0  0
  4  8  1  0  0  0  0
  6  9  1  0  0  0  0
  6 10  1  0  0  0  0
  7 11  1  0  0  0  0
  8 12  1  0  0  0  0
  8 13  2  0  0  0  0
 10 14  2  0  0  0  0
 10 15  1  0  0  0  0
 11 16  2  0  0  0  0
 14 17  1  0  0  0  0
 15 18  2  0  0  0  0
 16 19  1  0  0  0  0
 17 20  1  0  0  0  0
 17 21  2  0  0  0  0
 20 22  1  0  0  0  0
 21 23  1  0  0  0  0
  7  9  1  0  0  0  0
 13 16  1  0  0  0  0
 18 21  1  0  0  0  0
 22 23  1  0  0  0  0
M  END
>  <MolRegNo>
567895

>  <m>
>

>  <Value>
50000

>  <Unit>
nM

>  <Type>
IC50

>  <Ligand Efficiency>


>  <Binding Efficiency>


>  <Surface Efficiency>


>  <Assay Index>
426933

>  <Assay Category>


>  <Assay Organism>
SARS coronavirus

>  <Target ID>
101075

>  <Target Name>
Replicase polyprotein 1ab

>  <Target Organism>
SARS coronavirus

>  <Target Description>
Target is a single protein chain

>  <Sequence Accession>
P0C6X7

>  <Reference>
Bioorg. Med. Chem. Lett. 19 (16), 4538-4541 (2009)

>  <Pubmed ID>
19625187

>  <DOI>
10.1016/j.bmcl.2009.07.009

>  <InChI-Key>
KCXWXDGJLDWDTF-UHFFFAOYSA-N

>  <Molecular Formula>
C16H10O7

>  <Monoisotopic Mass>
314.042655

>  <Druglikeness>
-0.085009

$$$$
Compound 304
Actelion Java MolfileCreator 1.0

 23 26  0  0  0  0  0  0  0  0999 V2000
    0.0000   -0.0000   -0.0000 O   0  0  0  0  0  0  0  0  0  0  0  0
   -1.3064    0.7650   -0.0000 C   0  0  0  0  0  0  0  0  0  0  0  0
   -2.6128    0.0235   -0.0000 C   0  0  0  0  0  0  0  0  0  0  0  0
   -1.3182    2.2715   -0.0000 C   0  0  0  0  0  0  0  0  0  0  0  0
   -2.6246   -1.4594   -0.0000 O   0  0  0  0  0  0  0  0  0  0  0  0
   -3.9192    0.7886   -0.0000 C   0  0  0  0  0  0  0  0  0  0  0  0
   -2.6246    3.0247   -0.0000 C   0  0  0  0  0  0  0  0  0  0  0  0
   -0.0353    3.0247   -0.0000 C   0  0  0  0  0  0  0  0  0  0  0  0
   -3.9310    2.2950   -0.0000 O   0  0  0  0  0  0  0  0  0  0  0  0
   -5.2256    0.0471   -0.0000 C   0  0  0  0  0  0  0  0  0  0  0  0
   -2.6364    4.5312   -0.0000 C   0  0  0  0  0  0  0  0  0  0  0  0
    1.2476    2.2950   -0.0000 O   0  0  0  0  0  0  0  0  0  0  0  0
   -0.0471    4.5312   -0.0000 C   0  0  0  0  0  0  0  0  0  0  0  0
   -6.5320    0.8121   -0.0000 C   0  0  0  0  0  0  0  0  0  0  0  0
   -5.2374   -1.4359   -0.0000 C   0  0  0  0  0  0  0  0  0  0  0  0
   -1.3535    5.2845   -0.0000 C   0  0  0  0  0  0  0  0  0  0  0  0
   -7.8384    0.0706   -0.0000 C   0  0  0  0  0  0  0  0  0  0  0  0
   -6.5438   -2.1656   -0.0000 C   0  0  0  0  0  0  0  0  0  0  0  0
   -1.3653    6.7910   -0.0000 O   0  0  0  0  0  0  0  0  0  0  0  0
   -9.2743    0.5414   -0.0000 O   0  0  0  0  0  0  0  0  0  0  0  0
   -7.8502   -1.4123   -0.0000 C   0  0  0  0  0  0  0  0  0  0  0  0
  -10.1688   -0.6591   -0.0000 C   0  0  0  0  0  0  0  0  0  0  0  0
   -9.2861   -1.8596   -0.0000 O   0  0  0  0  0  0  0  0  0  0  0  0
  1  2  2  0  0  0  0
  2  3  1  0  0  0  0
  2  4  1  0  0  0  0
  3  5  1  0  0  0  0
  3  6  2  0  0  0  0
  4  7  2  0  0  0  0
  4  8  1  0  0  0  0
  6  9  1  0  0  0  0
  6 10  1  0  0  0  0
  7 11  1  0  0  0  0
  8 12  1  0  0  0  0
  8 13  2  0  0  0  0
 10 14  2  0  0  0  0
 10 15  1  0  0  0  0
 11 16  2  0  0  0  0
 14 17  1  0  0  0  0
 15 18  2  0  0  0  0
 16 19  1  0  0  0  0
 17 20  1  0  0  0  0
 17 21  2  0  0  0  0
 20 22  1  0  0  0  0
 21 23  1  0  0  0  0
  7  9  1  0  0  0  0
 13 16  1  0  0  0  0
 18 21  1  0  0  0  0
 22 23  1  0  0  0  0
M  END
>  <MolRegNo>
567895

>  <m>
>

>  <Value>
50000

>  <Unit>
nM

>  <Type>
IC50

>  <Ligand Efficiency>


>  <Binding Efficiency>


>  <Surface Efficiency>


>  <Assay Index>
426934

>  <Assay Category>


>  <Assay Organism>
SARS coronavirus

>  <Target ID>
101075

>  <Target Name>
Replicase polyprotein 1ab

>  <Target Organism>
SARS coronavirus

>  <Target Description>
Target is a single protein chain

>  <Sequence Accession>
P0C6X7

>  <Reference>
Bioorg. Med. Chem. Lett. 19 (16), 4538-4541 (2009)

>  <Pubmed ID>
19625187

>  <DOI>
10.1016/j.bmcl.2009.07.009

>  <InChI-Key>
KCXWXDGJLDWDTF-UHFFFAOYSA-N

>  <Molecular Formula>
C16H10O7

>  <Monoisotopic Mass>
314.042655

>  <Druglikeness>
-0.085009

$$$$
Compound 305
Actelion Java MolfileCreator 1.0

 20 21  0  0  0  0  0  0  0  0999 V2000
    0.0000   -0.0000   -0.0000 S   0  0  0  0  0  0  0  0  0  0  0  0
    0.7486   -1.2833   -0.0000 O   0  0  0  0  0  0  0  0  0  0  0  0
   -0.7724    1.3071   -0.0000 O   0  0  0  0  0  0  0  0  0  0  0  0
    1.2833    0.7724   -0.0000 C   0  0  0  0  0  0  0  0  0  0  0  0
   -1.3071   -0.7367   -0.0000 C   0  0  0  0  0  0  0  0  0  0  0  0
    2.5785    0.0356   -0.0000 N   0  0  0  0  0  0  0  0  0  0  0  0
    1.2595    2.2695   -0.0000 C   0  0  0  0  0  0  0  0  0  0  0  0
   -2.6141    0.0238   -0.0000 C   0  0  0  0  0  0  0  0  0  0  0  0
   -1.3189   -2.2339   -0.0000 C   0  0  0  0  0  0  0  0  0  0  0  0
    3.8618    0.8080   -0.0000 C   0  0  0  0  0  0  0  0  0  0  0  0
   -0.0594    3.0181   -0.0000 N   0  0  0  0  0  0  0  0  0  0  0  0
    2.5309    3.0419   -0.0000 C   0  0  0  0  0  0  0  0  0  0  0  0
   -3.9212   -0.7129   -0.0000 C   0  0  0  0  0  0  0  0  0  0  0  0
   -2.6379   -2.9706   -0.0000 C   0  0  0  0  0  0  0  0  0  0  0  0
    5.1570    0.0832   -0.0000 O   0  0  0  0  0  0  0  0  0  0  0  0
    3.8380    2.3171   -0.0000 C   0  0  0  0  0  0  0  0  0  0  0  0
   -1.3665    2.2695   -0.0000 O   0  0  0  0  0  0  0  0  0  0  0  0
   -0.0832    4.5272   -0.0000 O   0  0  0  0  0  0  0  0  0  0  0  0
   -3.9331   -2.2101   -0.0000 C   0  0  0  0  0  0  0  0  0  0  0  0
    5.1570   -1.4021   -0.0000 C   0  0  0  0  0  0  0  0  0  0  0  0
  1  2  2  0  0  0  0
  1  3  2  0  0  0  0
  1  4  1  0  0  0  0
  1  5  1  0  0  0  0
  4  6  2  0  0  0  0
  4  7  1  0  0  0  0
  5  8  2  0  0  0  0
  5  9  1  0  0  0  0
  6 10  1  0  0  0  0
  7 11  1  0  0  0  0
  7 12  2  0  0  0  0
  8 13  1  0  0  0  0
  9 14  2  0  0  0  0
 10 15  1  0  0  0  0
 10 16  2  0  0  0  0
 11 17  2  0  0  0  0
 11 18  1  0  0  0  0
 13 19  2  0  0  0  0
 15 20  1  0  0  0  0
 12 16  1  0  0  0  0
 14 19  1  0  0  0  0
M  CHG  2  11   1  18  -1
M  END
>  <MolRegNo>
356545

>  <m>
=

>  <Value>
58

>  <Unit>
%

>  <Type>
Inhibition

>  <Ligand Efficiency>


>  <Binding Efficiency>


>  <Surface Efficiency>


>  <Assay Index>
266028

>  <Assay Category>


>  <Assay Organism>
SARS coronavirus

>  <Target ID>
20012

>  <Target Name>
SARS coronavirus 3C-like proteinase

>  <Target Organism>
SARS coronavirus

>  <Target Description>
Target is a single protein chain

>  <Sequence Accession>
P0C6U8

>  <Reference>
J. Med. Chem. 49 (17), 5154-5161 (2006)

>  <Pubmed ID>
16913704

>  <DOI>
10.1021/jm060207o

>  <InChI-Key>
KDVGXXBOCUFNTQ-UHFFFAOYSA-N

>  <Molecular Formula>
C12H10N2O5S

>  <Monoisotopic Mass>
294.031043

>  <Druglikeness>
-14.911

$$$$
Compound 306
Actelion Java MolfileCreator 1.0

 26 28  0  0  0  0  0  0  0  0999 V2000
    0.0000   -0.0000   -0.0000 O   0  0  0  0  0  0  0  0  0  0  0  0
   -1.0880    0.6234   -0.0000 C   0  0  0  0  0  0  0  0  0  0  0  0
   -1.1002    2.1881   -0.0000 N   0  0  0  0  0  0  0  0  0  0  0  0
   -2.4448   -0.1467   -0.0000 C   0  0  0  0  0  0  0  0  0  0  0  0
    0.2323    2.9827   -0.0000 C   0  0  0  0  0  0  0  0  0  0  0  0
   -2.4571   -1.6869   -0.0000 C   0  0  0  0  0  0  0  0  0  0  0  0
   -3.8017    0.6357   -0.0000 C   0  0  0  0  0  0  0  0  0  0  0  0
    0.2200    4.5474   -0.0000 C   0  0  0  0  0  0  0  0  0  0  0  0
    1.2958    2.3837   -0.0000 C   0  0  0  0  0  0  0  0  0  0  0  0
   -3.8139   -2.4571   -0.0000 C   0  0  0  0  0  0  0  0  0  0  0  0
   -1.3936   -2.2981   -0.0000 C   0  0  0  0  0  0  0  0  0  0  0  0
   -5.1586   -0.1345   -0.0000 C   0  0  0  0  0  0  0  0  0  0  0  0
    1.5525    5.3297   -0.0000 C   0  0  0  0  0  0  0  0  0  0  0  0
   -1.1491    5.3297   -0.0000 C   0  0  0  0  0  0  0  0  0  0  0  0
   -5.1708   -1.6747   -0.0000 C   0  0  0  0  0  0  0  0  0  0  0  0
   -6.5155    0.6479   -0.0000 N   0  0  0  0  0  0  0  0  0  0  0  0
    1.5402    6.8944   -0.0000 C   0  0  0  0  0  0  0  0  0  0  0  0
    2.8849    4.5718   -0.0000 C   0  0  0  0  0  0  0  0  0  0  0  0
   -1.1613    6.8944   -0.0000 C   0  0  0  0  0  0  0  0  0  0  0  0
   -6.5277    2.2126   -0.0000 C   0  0  0  0  0  0  0  0  0  0  0  0
    0.1834    7.6768   -0.0000 C   0  0  0  0  0  0  0  0  0  0  0  0
    2.8727    7.6768   -0.0000 C   0  0  0  0  0  0  0  0  0  0  0  0
    4.2173    5.3542   -0.0000 C   0  0  0  0  0  0  0  0  0  0  0  0
   -7.6157    2.8482   -0.0000 O   0  0  0  0  0  0  0  0  0  0  0  0
   -5.4642    2.8482   -0.0000 C   0  0  0  0  0  0  0  0  0  0  0  0
    4.2051    6.9189   -0.0000 C   0  0  0  0  0  0  0  0  0  0  0  0
  1  2  2  0  0  0  0
  2  3  1  0  0  0  0
  2  4  1  0  0  0  0
  5  3  1  6  0  0  0
  4  6  2  0  0  0  0
  4  7  1  0  0  0  0
  5  8  1  0  0  0  0
  5  9  1  0  0  0  0
  6 10  1  0  0  0  0
  6 11  1  0  0  0  0
  7 12  2  0  0  0  0
  8 13  1  0  0  0  0
  8 14  2  0  0  0  0
 10 15  2  0  0  0  0
 12 16  1  0  0  0  0
 13 17  1  0  0  0  0
 13 18  2  0  0  0  0
 14 19  1  0  0  0  0
 16 20  1  0  0  0  0
 17 21  1  0  0  0  0
 17 22  2  0  0  0  0
 18 23  1  0  0  0  0
 20 24  2  0  0  0  0
 20 25  1  0  0  0  0
 22 26  1  0  0  0  0
 12 15  1  0  0  0  0
 19 21  2  0  0  0  0
 23 26  2  0  0  0  0
M  END
>  <MolRegNo>
560380

>  <m>
=

>  <Value>
14500

>  <Unit>
nM

>  <Type>
EC50

>  <Ligand Efficiency>


>  <Binding Efficiency>


>  <Surface Efficiency>


>  <Assay Index>
425462

>  <Assay Category>


>  <Assay Organism>
SARS coronavirus

>  <Target ID>
100499

>  <Target Name>
SARS coronavirus

>  <Target Organism>
SARS coronavirus

>  <Target Description>
Target is a complete organism

>  <Sequence Accession>


>  <Reference>
J. Med. Chem. 52 (16), 5228-5240 (2009)

>  <Pubmed ID>
19645480

>  <DOI>
10.1021/jm900611t

>  <InChI-Key>
KGPYBLOBHQLIET-HNNXBMFYSA-N

>  <Molecular Formula>
C22H22N2O2

>  <Monoisotopic Mass>
346.168128

>  <Druglikeness>
2.5325

$$$$
Compound 307
Actelion Java MolfileCreator 1.0

 28 30  0  0  0  0  0  0  0  0999 V2000
    0.0000   -0.0000   -0.0000 S   0  0  0  0  0  0  0  0  0  0  0  0
    1.2835   -0.7368   -0.0000 C   0  0  0  0  0  0  0  0  0  0  0  0
   -1.3072   -0.7368   -0.0000 C   0  0  0  0  0  0  0  0  0  0  0  0
    1.2597   -2.2223   -0.0000 N   0  0  0  0  0  0  0  0  0  0  0  0
    2.5550    0.0357   -0.0000 N   0  0  0  0  0  0  0  0  0  0  0  0
   -2.6144    0.0238   -0.0000 C   0  0  0  0  0  0  0  0  0  0  0  0
    2.5431   -2.9591   -0.0000 C   0  0  0  0  0  0  0  0  0  0  0  0
    3.8385   -0.6893   -0.0000 C   0  0  0  0  0  0  0  0  0  0  0  0
   -2.6263    1.5330   -0.0000 O   0  0  0  0  0  0  0  0  0  0  0  0
   -3.9217   -0.7130   -0.0000 N   0  0  0  0  0  0  0  0  0  0  0  0
    2.5313   -4.4446   -0.0000 O   0  0  0  0  0  0  0  0  0  0  0  0
    3.8266   -2.1985   -0.0000 C   0  0  0  0  0  0  0  0  0  0  0  0
    5.1219    0.0832   -0.0000 C   0  0  0  0  0  0  0  0  0  0  0  0
   -5.2289    0.0475   -0.0000 C   0  0  0  0  0  0  0  0  0  0  0  0
    6.4054   -0.6536   -0.0000 C   0  0  0  0  0  0  0  0  0  0  0  0
    5.0982    1.5806   -0.0000 C   0  0  0  0  0  0  0  0  0  0  0  0
   -6.5480   -0.6893   -0.0000 C   0  0  0  0  0  0  0  0  0  0  0  0
   -5.2408    1.5687   -0.0000 C   0  0  0  0  0  0  0  0  0  0  0  0
    7.6889    0.1070   -0.0000 C   0  0  0  0  0  0  0  0  0  0  0  0
    6.3697    2.3530   -0.0000 C   0  0  0  0  0  0  0  0  0  0  0  0
   -7.8552    0.0713   -0.0000 C   0  0  0  0  0  0  0  0  0  0  0  0
   -6.5599    2.3174   -0.0000 C   0  0  0  0  0  0  0  0  0  0  0  0
    7.6770    1.6162   -0.0000 C   0  0  0  0  0  0  0  0  0  0  0  0
   -9.1625   -0.6655   -0.0000 O   0  0  0  0  0  0  0  0  0  0  0  0
   -7.8671    1.5806   -0.0000 C   0  0  0  0  0  0  0  0  0  0  0  0
  -10.4697    0.0951   -0.0000 C   0  0  0  0  0  0  0  0  0  0  0  0
   -9.1743    2.3411   -0.0000 O   0  0  0  0  0  0  0  0  0  0  0  0
   -9.1862    3.8504   -0.0000 C   0  0  0  0  0  0  0  0  0  0  0  0
  1  2  1  0  0  0  0
  1  3  1  0  0  0  0
  2  4  2  0  0  0  0
  2  5  1  0  0  0  0
  3  6  1  0  0  0  0
  4  7  1  0  0  0  0
  5  8  2  0  0  0  0
  6  9  2  0  0  0  0
  6 10  1  0  0  0  0
  7 11  1  0  0  0  0
  7 12  2  0  0  0  0
  8 13  1  0  0  0  0
 10 14  1  0  0  0  0
 13 15  2  0  0  0  0
 13 16  1  0  0  0  0
 14 17  2  0  0  0  0
 14 18  1  0  0  0  0
 15 19  1  0  0  0  0
 16 20  2  0  0  0  0
 17 21  1  0  0  0  0
 18 22  2  0  0  0  0
 19 23  2  0  0  0  0
 21 24  1  0  0  0  0
 21 25  2  0  0  0  0
 24 26  1  0  0  0  0
 25 27  1  0  0  0  0
 27 28  1  0  0  0  0
  8 12  1  0  0  0  0
 20 23  1  0  0  0  0
 22 25  1  0  0  0  0
M  END
>  <MolRegNo>
349261

>  <m>
=

>  <Value>
2.1878e13

>  <Unit>
nM

>  <Type>
IC50

>  <Ligand Efficiency>


>  <Binding Efficiency>


>  <Surface Efficiency>


>  <Assay Index>
262926

>  <Assay Category>


>  <Assay Organism>
SARS coronavirus

>  <Target ID>
20012

>  <Target Name>
SARS coronavirus 3C-like proteinase

>  <Target Organism>
SARS coronavirus

>  <Target Description>
Target is a single protein chain

>  <Sequence Accession>
P0C6U8

>  <Reference>
J. Med. Chem. 49 (12), 3485-3495 (2006)

>  <Pubmed ID>
16759091

>  <DOI>
10.1021/jm050852f

>  <InChI-Key>
KIFWJAVYYRTXDP-UHFFFAOYSA-N

>  <Molecular Formula>
C20H19N3O4S

>  <Monoisotopic Mass>
397.109627

>  <Druglikeness>
1.4547

$$$$
Compound 308
Actelion Java MolfileCreator 1.0

 28 30  0  0  0  0  0  0  0  0999 V2000
    0.0000   -0.0000   -0.0000 S   0  0  0  0  0  0  0  0  0  0  0  0
    1.2835   -0.7368   -0.0000 C   0  0  0  0  0  0  0  0  0  0  0  0
   -1.3072   -0.7368   -0.0000 C   0  0  0  0  0  0  0  0  0  0  0  0
    1.2597   -2.2223   -0.0000 N   0  0  0  0  0  0  0  0  0  0  0  0
    2.5550    0.0357   -0.0000 N   0  0  0  0  0  0  0  0  0  0  0  0
   -2.6144    0.0238   -0.0000 C   0  0  0  0  0  0  0  0  0  0  0  0
    2.5431   -2.9591   -0.0000 C   0  0  0  0  0  0  0  0  0  0  0  0
    3.8385   -0.6893   -0.0000 C   0  0  0  0  0  0  0  0  0  0  0  0
   -2.6263    1.5330   -0.0000 O   0  0  0  0  0  0  0  0  0  0  0  0
   -3.9217   -0.7130   -0.0000 N   0  0  0  0  0  0  0  0  0  0  0  0
    2.5313   -4.4446   -0.0000 O   0  0  0  0  0  0  0  0  0  0  0  0
    3.8266   -2.1985   -0.0000 C   0  0  0  0  0  0  0  0  0  0  0  0
    5.1219    0.0832   -0.0000 C   0  0  0  0  0  0  0  0  0  0  0  0
   -5.2289    0.0475   -0.0000 C   0  0  0  0  0  0  0  0  0  0  0  0
    6.4054   -0.6536   -0.0000 C   0  0  0  0  0  0  0  0  0  0  0  0
    5.0982    1.5806   -0.0000 C   0  0  0  0  0  0  0  0  0  0  0  0
   -6.5480   -0.6893   -0.0000 C   0  0  0  0  0  0  0  0  0  0  0  0
   -5.2408    1.5687   -0.0000 C   0  0  0  0  0  0  0  0  0  0  0  0
    7.6889    0.1070   -0.0000 C   0  0  0  0  0  0  0  0  0  0  0  0
    6.3697    2.3530   -0.0000 C   0  0  0  0  0  0  0  0  0  0  0  0
   -7.8552    0.0713   -0.0000 C   0  0  0  0  0  0  0  0  0  0  0  0
   -6.5599    2.3174   -0.0000 C   0  0  0  0  0  0  0  0  0  0  0  0
    7.6770    1.6162   -0.0000 C   0  0  0  0  0  0  0  0  0  0  0  0
   -9.1625   -0.6655   -0.0000 O   0  0  0  0  0  0  0  0  0  0  0  0
   -7.8671    1.5806   -0.0000 C   0  0  0  0  0  0  0  0  0  0  0  0
  -10.4697    0.0951   -0.0000 C   0  0  0  0  0  0  0  0  0  0  0  0
   -9.1743    2.3411   -0.0000 O   0  0  0  0  0  0  0  0  0  0  0  0
   -9.1862    3.8504   -0.0000 C   0  0  0  0  0  0  0  0  0  0  0  0
  1  2  1  0  0  0  0
  1  3  1  0  0  0  0
  2  4  2  0  0  0  0
  2  5  1  0  0  0  0
  3  6  1  0  0  0  0
  4  7  1  0  0  0  0
  5  8  2  0  0  0  0
  6  9  2  0  0  0  0
  6 10  1  0  0  0  0
  7 11  1  0  0  0  0
  7 12  2  0  0  0  0
  8 13  1  0  0  0  0
 10 14  1  0  0  0  0
 13 15  2  0  0  0  0
 13 16  1  0  0  0  0
 14 17  2  0  0  0  0
 14 18  1  0  0  0  0
 15 19  1  0  0  0  0
 16 20  2  0  0  0  0
 17 21  1  0  0  0  0
 18 22  2  0  0  0  0
 19 23  2  0  0  0  0
 21 24  1  0  0  0  0
 21 25  2  0  0  0  0
 24 26  1  0  0  0  0
 25 27  1  0  0  0  0
 27 28  1  0  0  0  0
  8 12  1  0  0  0  0
 20 23  1  0  0  0  0
 22 25  1  0  0  0  0
M  END
>  <MolRegNo>
349261

>  <m>
=

>  <Value>
45000

>  <Unit>
nM

>  <Type>
IC50

>  <Ligand Efficiency>
0.21

>  <Binding Efficiency>
10.94

>  <Surface Efficiency>
4.65

>  <Assay Index>
262926

>  <Assay Category>


>  <Assay Organism>
SARS coronavirus

>  <Target ID>
20012

>  <Target Name>
SARS coronavirus 3C-like proteinase

>  <Target Organism>
SARS coronavirus

>  <Target Description>
Target is a single protein chain

>  <Sequence Accession>
P0C6U8

>  <Reference>
J. Med. Chem. 49 (12), 3485-3495 (2006)

>  <Pubmed ID>
16759091

>  <DOI>
10.1021/jm050852f

>  <InChI-Key>
KIFWJAVYYRTXDP-UHFFFAOYSA-N

>  <Molecular Formula>
C20H19N3O4S

>  <Monoisotopic Mass>
397.109627

>  <Druglikeness>
1.4547

$$$$
Compound 309
Actelion Java MolfileCreator 1.0

 22 23  0  0  1  0  0  0  0  0999 V2000
    0.0000   -0.0000   -0.0000 O   0  0  0  0  0  0  0  0  0  0  0  0
   -0.0118    1.5012   -0.0000 C   0  0  0  0  0  0  0  0  0  0  0  0
    1.2766    2.2577   -0.0000 O   0  0  0  0  0  0  0  0  0  0  0  0
   -1.3121    2.2577   -0.0000 C   0  0  0  0  0  0  0  0  0  0  0  0
    2.5532    1.5248   -0.0000 C   0  0  0  0  0  0  0  0  0  0  0  0
   -2.0686    3.5698   -0.0000 N   0  0  0  0  0  0  0  0  0  0  0  0
   -2.8132    2.2695   -0.0000 C   0  0  0  0  0  0  0  0  0  0  0  0
   -2.0804    5.0709   -0.0000 C   0  0  0  0  0  0  0  0  0  0  0  0
   -3.3806    5.8274   -0.0000 C   0  0  0  0  0  0  0  0  0  0  0  0
   -0.8038    5.8274   -0.0000 C   0  0  0  0  0  0  0  0  0  0  0  0
   -4.6927    5.0946   -0.0000 O   0  0  0  0  0  0  0  0  0  0  0  0
   -3.3924    7.3286   -0.0000 O   0  0  0  0  0  0  0  0  0  0  0  0
    0.4728    5.0946   -0.0000 C   0  0  0  0  0  0  0  0  0  0  0  0
   -0.8156    7.3286   -0.0000 C   0  0  0  0  0  0  0  0  0  0  0  0
   -2.1158    8.0851   -0.0000 C   0  0  0  0  0  0  0  0  0  0  0  0
    1.7494    5.8511   -0.0000 C   0  0  0  0  0  0  0  0  0  0  0  0
   -2.1395    9.5981   -0.0000 C   0  0  0  0  0  0  0  0  0  0  0  0
   -0.8511   10.3665   -0.0000 C   0  0  0  0  0  0  0  0  0  0  0  0
   -3.4516   10.3428   -0.0000 C   0  0  0  0  0  0  0  0  0  0  0  0
   -0.8747   11.8795   -0.0000 C   0  0  0  0  0  0  0  0  0  0  0  0
   -3.4870   11.8558   -0.0000 C   0  0  0  0  0  0  0  0  0  0  0  0
   -2.1986   12.6360   -0.0000 C   0  0  0  0  0  0  0  0  0  0  0  0
  1  2  2  0  0  0  0
  2  3  1  0  0  0  0
  2  4  1  0  0  0  0
  3  5  1  0  0  0  0
  4  6  1  0  0  0  0
  4  7  1  0  0  0  0
  8  6  1  6  0  0  0
  8  9  1  0  0  0  0
  8 10  1  0  0  0  0
  9 11  2  0  0  0  0
  9 12  1  0  0  0  0
 10 13  1  0  0  0  0
 10 14  1  0  0  0  0
 12 15  1  0  0  0  0
 13 16  1  0  0  0  0
 15 17  1  0  0  0  0
 17 18  2  0  0  0  0
 17 19  1  0  0  0  0
 18 20  1  0  0  0  0
 19 21  2  0  0  0  0
 20 22  2  0  0  0  0
  6  7  1  0  0  0  0
 21 22  1  0  0  0  0
M  END
>  <MolRegNo>
333671

>  <m>
=

>  <Value>
30

>  <Unit>
%

>  <Type>
Inhibition

>  <Ligand Efficiency>


>  <Binding Efficiency>


>  <Surface Efficiency>


>  <Assay Index>
254531

>  <Assay Category>


>  <Assay Organism>
SARS coronavirus

>  <Target ID>
20012

>  <Target Name>
SARS coronavirus 3C-like proteinase

>  <Target Organism>
SARS coronavirus

>  <Target Description>
Target is a single protein chain

>  <Sequence Accession>
P0C6U8

>  <Reference>
Bioorg. Med. Chem. Lett. 15 (24), 5365-5369 (2005)

>  <Pubmed ID>
16216498

>  <DOI>
10.1016/j.bmcl.2005.09.012

>  <InChI-Key>
KISPSGAZUSAHKJ-BNBJWABOSA-N

>  <Molecular Formula>
C17H23NO4

>  <Monoisotopic Mass>
305.162709

>  <Druglikeness>
1.5716

$$$$
Compound 310
Actelion Java MolfileCreator 1.0

 47 48  0  0  1  0  0  0  0  0999 V2000
    0.0000   -0.0000   -0.0000 O   0  0  0  0  0  0  0  0  0  0  0  0
    1.1083    1.0139   -0.0000 C   0  0  0  0  0  0  0  0  0  0  0  0
    2.5585    0.7074   -0.0000 N   0  0  0  0  0  0  0  0  0  0  0  0
    0.9432    2.5113   -0.0000 C   0  0  0  0  0  0  0  0  0  0  0  0
    3.3012    2.0161   -0.0000 C   0  0  0  0  0  0  0  0  0  0  0  0
    2.2873    3.1244   -0.0000 C   0  0  0  0  0  0  0  0  0  0  0  0
   -0.3655    3.2776   -0.0000 C   0  0  0  0  0  0  0  0  0  0  0  0
   -0.3773    4.7868   -0.0000 C   0  0  0  0  0  0  0  0  0  0  0  0
   -1.6860    5.5531   -0.0000 N   0  0  0  0  0  0  0  0  0  0  0  0
    0.9078    5.5413   -0.0000 C   0  0  0  0  0  0  0  0  0  0  0  0
   -2.9947    4.8221   -0.0000 C   0  0  0  0  0  0  0  0  0  0  0  0
    0.8960    7.0505   -0.0000 C   0  0  0  0  0  0  0  0  0  0  0  0
   -3.0065    3.3366   -0.0000 O   0  0  0  0  0  0  0  0  0  0  0  0
   -4.3034    5.5885   -0.0000 C   0  0  0  0  0  0  0  0  0  0  0  0
    2.1812    7.8050   -0.0000 C   0  0  0  0  0  0  0  0  0  0  0  0
   -5.6121    4.8575   -0.0000 N   0  0  0  0  0  0  0  0  0  0  0  0
   -4.3152    7.0976   -0.0000 C   0  0  0  0  0  0  0  0  0  0  0  0
    2.1694    9.3142   -0.0000 O   0  0  0  0  0  0  0  0  0  0  0  0
    3.4663    7.0623   -0.0000 O   0  0  0  0  0  0  0  0  0  0  0  0
   -6.9208    5.6239   -0.0000 C   0  0  0  0  0  0  0  0  0  0  0  0
   -3.0301    7.8522   -0.0000 C   0  0  0  0  0  0  0  0  0  0  0  0
    4.7514    7.8168   -0.0000 C   0  0  0  0  0  0  0  0  0  0  0  0
   -6.9326    7.1330   -0.0000 O   0  0  0  0  0  0  0  0  0  0  0  0
   -8.2295    4.8929   -0.0000 C   0  0  0  0  0  0  0  0  0  0  0  0
   -1.7567    7.1094   -0.0000 C   0  0  0  0  0  0  0  0  0  0  0  0
   -3.0536    9.3495   -0.0000 C   0  0  0  0  0  0  0  0  0  0  0  0
    6.0365    7.0741   -0.0000 C   0  0  0  0  0  0  0  0  0  0  0  0
   -9.5382    5.6592   -0.0000 N   0  0  0  0  0  0  0  0  0  0  0  0
   -8.2413    3.4073   -0.0000 C   0  0  0  0  0  0  0  0  0  0  0  0
   -0.4716    7.8640   -0.0000 C   0  0  0  0  0  0  0  0  0  0  0  0
   -1.7803   10.1159   -0.0000 C   0  0  0  0  0  0  0  0  0  0  0  0
  -10.8469    4.9283   -0.0000 C   0  0  0  0  0  0  0  0  0  0  0  0
   -9.5500    2.6764   -0.0000 C   0  0  0  0  0  0  0  0  0  0  0  0
   -6.9562    2.6646   -0.0000 C   0  0  0  0  0  0  0  0  0  0  0  0
   -0.4834    9.3731   -0.0000 C   0  0  0  0  0  0  0  0  0  0  0  0
  -10.8587    3.4427   -0.0000 O   0  0  0  0  0  0  0  0  0  0  0  0
  -12.1556    5.6946   -0.0000 C   0  0  0  0  0  0  0  0  0  0  0  0
  -13.4643    4.9636   -0.0000 N   0  0  0  0  0  0  0  0  0  0  0  0
  -12.1674    7.2037   -0.0000 C   0  0  0  0  0  0  0  0  0  0  0  0
  -14.7730    5.7300   -0.0000 C   0  0  0  0  0  0  0  0  0  0  0  0
  -13.4761    7.9701   -0.0000 O   0  0  0  0  0  0  0  0  0  0  0  0
  -14.7848    7.2391   -0.0000 O   0  0  0  0  0  0  0  0  0  0  0  0
  -16.0817    4.9990   -0.0000 O   0  0  0  0  0  0  0  0  0  0  0  0
  -17.3904    5.7654   -0.0000 C   0  0  0  0  0  0  0  0  0  0  0  0
  -16.6594    7.0741   -0.0000 C   0  0  0  0  0  0  0  0  0  0  0  0
  -18.1567    4.4920   -0.0000 C   0  0  0  0  0  0  0  0  0  0  0  0
  -18.6991    6.5199   -0.0000 C   0  0  0  0  0  0  0  0  0  0  0  0
  1  2  2  0  0  0  0
  2  3  1  0  0  0  0
  2  4  1  0  0  0  0
  3  5  1  0  0  0  0
  4  6  1  0  0  0  0
  4  7  1  6  0  0  0
  7  8  1  0  0  0  0
  8  9  1  6  0  0  0
  8 10  1  0  0  0  0
  9 11  1  0  0  0  0
 10 12  2  0  0  0  0
 11 13  2  0  0  0  0
 11 14  1  0  0  0  0
 12 15  1  0  0  0  0
 14 16  1  1  0  0  0
 14 17  1  0  0  0  0
 15 18  2  0  0  0  0
 15 19  1  0  0  0  0
 16 20  1  0  0  0  0
 17 21  1  0  0  0  0
 19 22  1  0  0  0  0
 20 23  2  0  0  0  0
 20 24  1  0  0  0  0
 21 25  2  0  0  0  0
 21 26  1  0  0  0  0
 22 27  1  0  0  0  0
 24 28  1  6  0  0  0
 24 29  1  0  0  0  0
 25 30  1  0  0  0  0
 26 31  2  0  0  0  0
 28 32  1  0  0  0  0
 29 33  1  0  0  0  0
 29 34  1  0  0  0  0
 30 35  2  0  0  0  0
 32 36  2  0  0  0  0
 32 37  1  0  0  0  0
 37 38  1  1  0  0  0
 37 39  1  0  0  0  0
 38 40  1  0  0  0  0
 39 41  1  0  0  0  0
 40 42  2  0  0  0  0
 40 43  1  0  0  0  0
 43 44  1  0  0  0  0
 44 45  1  0  0  0  0
 44 46  1  0  0  0  0
 44 47  1  0  0  0  0
  5  6  1  0  0  0  0
 31 35  1  0  0  0  0
M  END
>  <MolRegNo>
399194

>  <m>
=

>  <Value>
1.0e5

>  <Unit>
nM

>  <Type>
IC50

>  <Ligand Efficiency>


>  <Binding Efficiency>


>  <Surface Efficiency>


>  <Assay Index>
298649

>  <Assay Category>


>  <Assay Organism>
SARS coronavirus

>  <Target ID>
100499

>  <Target Name>
SARS coronavirus

>  <Target Organism>
SARS coronavirus

>  <Target Description>
Target is a complete organism

>  <Sequence Accession>


>  <Reference>
Bioorg. Med. Chem. Lett. 17 (21), 5876-5880 (2007)

>  <Pubmed ID>
17855091

>  <DOI>
10.1016/j.bmcl.2007.08.031

>  <InChI-Key>
KIZUZFOIPSGEGW-BUYUYZSNSA-N

>  <Molecular Formula>
C33H49N5O9

>  <Monoisotopic Mass>
659.353030

>  <Druglikeness>
-64.608

$$$$
Compound 311
Actelion Java MolfileCreator 1.0

 37 41  0  0  1  0  0  0  0  0999 V2000
    0.0000   -0.0000   -0.0000 O   0  0  0  0  0  0  0  0  0  0  0  0
   -0.0474    1.5163   -0.0000 C   0  0  0  0  0  0  0  0  0  0  0  0
    1.2320    2.3100   -0.0000 N   0  0  0  0  0  0  0  0  0  0  0  0
   -1.3742    2.2508   -0.0000 C   0  0  0  0  0  0  0  0  0  0  0  0
    2.5114    1.5637   -0.0000 C   0  0  0  0  0  0  0  0  0  0  0  0
   -2.1442    3.5658   -0.0000 N   0  0  0  0  0  0  0  0  0  0  0  0
   -2.8905    2.2627   -0.0000 C   0  0  0  0  0  0  0  0  0  0  0  0
    3.8027    2.3219   -0.0000 C   0  0  0  0  0  0  0  0  0  0  0  0
    2.4996    0.0711   -0.0000 C   0  0  0  0  0  0  0  0  0  0  0  0
   -2.1560    5.0821   -0.0000 C   0  0  0  0  0  0  0  0  0  0  0  0
   -4.2055    1.5163   -0.0000 C   0  0  0  0  0  0  0  0  0  0  0  0
    3.7908    3.8382   -0.0000 O   0  0  0  0  0  0  0  0  0  0  0  0
    5.0939    1.5756   -0.0000 O   0  0  0  0  0  0  0  0  0  0  0  0
    3.7908   -0.6752   -0.0000 C   0  0  0  0  0  0  0  0  0  0  0  0
   -0.8648    5.8403   -0.0000 C   0  0  0  0  0  0  0  0  0  0  0  0
   -5.5204    2.2863   -0.0000 C   0  0  0  0  0  0  0  0  0  0  0  0
   -4.2173    0.0355   -0.0000 C   0  0  0  0  0  0  0  0  0  0  0  0
    6.3852    2.3337   -0.0000 C   0  0  0  0  0  0  0  0  0  0  0  0
    3.7790   -2.1679   -0.0000 C   0  0  0  0  0  0  0  0  0  0  0  0
    5.0821    0.0829   -0.0000 C   0  0  0  0  0  0  0  0  0  0  0  0
    0.4265    5.0939   -0.0000 C   0  0  0  0  0  0  0  0  0  0  0  0
   -0.8885    7.3447   -0.0000 C   0  0  0  0  0  0  0  0  0  0  0  0
   -6.8354    1.5400   -0.0000 C   0  0  0  0  0  0  0  0  0  0  0  0
   -5.5204   -0.6989   -0.0000 C   0  0  0  0  0  0  0  0  0  0  0  0
    7.6646    1.5874   -0.0000 C   0  0  0  0  0  0  0  0  0  0  0  0
    5.0702   -2.9142   -0.0000 C   0  0  0  0  0  0  0  0  0  0  0  0
    6.3733   -0.6516   -0.0000 C   0  0  0  0  0  0  0  0  0  0  0  0
    1.7177    5.8521   -0.0000 C   0  0  0  0  0  0  0  0  0  0  0  0
    0.3909    8.1148   -0.0000 C   0  0  0  0  0  0  0  0  0  0  0  0
   -6.8472    0.0474   -0.0000 C   0  0  0  0  0  0  0  0  0  0  0  0
    7.6528    0.1066   -0.0000 C   0  0  0  0  0  0  0  0  0  0  0  0
    8.9440    2.3574   -0.0000 C   0  0  0  0  0  0  0  0  0  0  0  0
    6.3497   -2.1560   -0.0000 C   0  0  0  0  0  0  0  0  0  0  0  0
    1.7059    7.3684   -0.0000 C   0  0  0  0  0  0  0  0  0  0  0  0
    8.9322   -0.6397   -0.0000 C   0  0  0  0  0  0  0  0  0  0  0  0
   10.2353    1.6230   -0.0000 C   0  0  0  0  0  0  0  0  0  0  0  0
   10.2234    0.1185   -0.0000 C   0  0  0  0  0  0  0  0  0  0  0  0
  1  2  2  0  0  0  0
  2  3  1  0  0  0  0
  2  4  1  0  0  0  0
  5  3  1  6  0  0  0
  4  6  1  0  0  0  0
  4  7  1  0  0  0  0
  5  8  1  0  0  0  0
  5  9  1  0  0  0  0
  6 10  1  0  0  0  0
  7 11  1  0  0  0  0
  8 12  2  0  0  0  0
  8 13  1  0  0  0  0
  9 14  1  0  0  0  0
 10 15  1  0  0  0  0
 11 16  2  0  0  0  0
 11 17  1  0  0  0  0
 13 18  1  0  0  0  0
 14 19  2  0  0  0  0
 14 20  1  0  0  0  0
 15 21  2  0  0  0  0
 15 22  1  0  0  0  0
 16 23  1  0  0  0  0
 17 24  2  0  0  0  0
 18 25  1  0  0  0  0
 19 26  1  0  0  0  0
 20 27  2  0  0  0  0
 21 28  1  0  0  0  0
 22 29  2  0  0  0  0
 23 30  2  0  0  0  0
 25 31  2  0  0  0  0
 25 32  1  0  0  0  0
 26 33  2  0  0  0  0
 28 34  2  0  0  0  0
 31 35  1  0  0  0  0
 32 36  2  0  0  0  0
 35 37  2  0  0  0  0
  6  7  1  0  0  0  0
 24 30  1  0  0  0  0
 27 33  1  0  0  0  0
 29 34  1  0  0  0  0
 36 37  1  0  0  0  0
M  END
>  <MolRegNo>
333613

>  <m>
=

>  <Value>
30

>  <Unit>
%

>  <Type>
Inhibition

>  <Ligand Efficiency>


>  <Binding Efficiency>


>  <Surface Efficiency>


>  <Assay Index>
254531

>  <Assay Category>


>  <Assay Organism>
SARS coronavirus

>  <Target ID>
20012

>  <Target Name>
SARS coronavirus 3C-like proteinase

>  <Target Organism>
SARS coronavirus

>  <Target Description>
Target is a single protein chain

>  <Sequence Accession>
P0C6U8

>  <Reference>
Bioorg. Med. Chem. Lett. 15 (24), 5365-5369 (2005)

>  <Pubmed ID>
16216498

>  <DOI>
10.1016/j.bmcl.2005.09.012

>  <InChI-Key>
KNHHBLCEYWSMTG-YFHQZEJWSA-N

>  <Molecular Formula>
C32H30N2O3

>  <Monoisotopic Mass>
490.225643

>  <Druglikeness>
5.6168

$$$$
Compound 312
Actelion Java MolfileCreator 1.0

 27 29  0  0  0  0  0  0  0  0999 V2000
    0.0000   -0.0000   -0.0000 Cl  0  0  0  0  0  0  0  0  0  0  0  0
    0.0000   -1.4941   -0.0000 C   0  0  0  0  0  0  0  0  0  0  0  0
    1.3028   -2.2232   -0.0000 C   0  0  0  0  0  0  0  0  0  0  0  0
   -1.3028   -2.2351   -0.0000 C   0  0  0  0  0  0  0  0  0  0  0  0
    1.2909   -3.7292   -0.0000 C   0  0  0  0  0  0  0  0  0  0  0  0
   -1.3148   -3.7292   -0.0000 C   0  0  0  0  0  0  0  0  0  0  0  0
    2.5818   -4.4703   -0.0000 N   0  0  0  0  0  0  0  0  0  0  0  0
   -0.0359   -4.4703   -0.0000 C   0  0  0  0  0  0  0  0  0  0  0  0
    3.8726   -3.7053   -0.0000 C   0  0  0  0  0  0  0  0  0  0  0  0
   -0.0478   -5.9643   -0.0000 O   0  0  0  0  0  0  0  0  0  0  0  0
    3.8607   -2.1873   -0.0000 O   0  0  0  0  0  0  0  0  0  0  0  0
    5.1635   -4.4464   -0.0000 C   0  0  0  0  0  0  0  0  0  0  0  0
   -1.3626   -6.7054   -0.0000 C   0  0  0  0  0  0  0  0  0  0  0  0
    6.4544   -3.6814   -0.0000 S   0  0  0  0  0  0  0  0  0  0  0  0
   -2.6774   -5.9285   -0.0000 C   0  0  0  0  0  0  0  0  0  0  0  0
   -1.3626   -8.1875   -0.0000 C   0  0  0  0  0  0  0  0  0  0  0  0
    7.7453   -4.4225   -0.0000 C   0  0  0  0  0  0  0  0  0  0  0  0
   -3.9922   -6.6695   -0.0000 C   0  0  0  0  0  0  0  0  0  0  0  0
   -2.6774   -8.9286   -0.0000 C   0  0  0  0  0  0  0  0  0  0  0  0
    7.7214   -5.9165   -0.0000 N   0  0  0  0  0  0  0  0  0  0  0  0
    9.0242   -3.6455   -0.0000 N   0  0  0  0  0  0  0  0  0  0  0  0
   -4.0041   -8.1636   -0.0000 C   0  0  0  0  0  0  0  0  0  0  0  0
    9.0123   -6.6576   -0.0000 C   0  0  0  0  0  0  0  0  0  0  0  0
   10.3151   -4.3747   -0.0000 C   0  0  0  0  0  0  0  0  0  0  0  0
    9.0003   -8.1517   -0.0000 O   0  0  0  0  0  0  0  0  0  0  0  0
   10.3031   -5.8926   -0.0000 C   0  0  0  0  0  0  0  0  0  0  0  0
   11.6060   -3.6097   -0.0000 C   0  0  0  0  0  0  0  0  0  0  0  0
  1  2  1  0  0  0  0
  2  3  2  0  0  0  0
  2  4  1  0  0  0  0
  3  5  1  0  0  0  0
  4  6  2  0  0  0  0
  5  7  1  0  0  0  0
  5  8  2  0  0  0  0
  7  9  1  0  0  0  0
  8 10  1  0  0  0  0
  9 11  2  0  0  0  0
  9 12  1  0  0  0  0
 10 13  1  0  0  0  0
 12 14  1  0  0  0  0
 13 15  2  0  0  0  0
 13 16  1  0  0  0  0
 14 17  1  0  0  0  0
 15 18  1  0  0  0  0
 16 19  2  0  0  0  0
 17 20  2  0  0  0  0
 17 21  1  0  0  0  0
 18 22  2  0  0  0  0
 20 23  1  0  0  0  0
 21 24  2  0  0  0  0
 23 25  1  0  0  0  0
 23 26  2  0  0  0  0
 24 27  1  0  0  0  0
  6  8  1  0  0  0  0
 19 22  1  0  0  0  0
 24 26  1  0  0  0  0
M  END
>  <MolRegNo>
348865

>  <m>
=

>  <Value>
1.0e13

>  <Unit>
nM

>  <Type>
IC50

>  <Ligand Efficiency>


>  <Binding Efficiency>


>  <Surface Efficiency>


>  <Assay Index>
262926

>  <Assay Category>


>  <Assay Organism>
SARS coronavirus

>  <Target ID>
20012

>  <Target Name>
SARS coronavirus 3C-like proteinase

>  <Target Organism>
SARS coronavirus

>  <Target Description>
Target is a single protein chain

>  <Sequence Accession>
P0C6U8

>  <Reference>
J. Med. Chem. 49 (12), 3485-3495 (2006)

>  <Pubmed ID>
16759091

>  <DOI>
10.1021/jm050852f

>  <InChI-Key>
KROPIDGCKMSLKK-UHFFFAOYSA-N

>  <Molecular Formula>
C19H16N3O3ClS

>  <Monoisotopic Mass>
401.060089

>  <Druglikeness>
1.4126

$$$$
Compound 313
Actelion Java MolfileCreator 1.0

 27 29  0  0  0  0  0  0  0  0999 V2000
    0.0000   -0.0000   -0.0000 Cl  0  0  0  0  0  0  0  0  0  0  0  0
    0.0000   -1.4941   -0.0000 C   0  0  0  0  0  0  0  0  0  0  0  0
    1.3028   -2.2232   -0.0000 C   0  0  0  0  0  0  0  0  0  0  0  0
   -1.3028   -2.2351   -0.0000 C   0  0  0  0  0  0  0  0  0  0  0  0
    1.2909   -3.7292   -0.0000 C   0  0  0  0  0  0  0  0  0  0  0  0
   -1.3148   -3.7292   -0.0000 C   0  0  0  0  0  0  0  0  0  0  0  0
    2.5818   -4.4703   -0.0000 N   0  0  0  0  0  0  0  0  0  0  0  0
   -0.0359   -4.4703   -0.0000 C   0  0  0  0  0  0  0  0  0  0  0  0
    3.8726   -3.7053   -0.0000 C   0  0  0  0  0  0  0  0  0  0  0  0
   -0.0478   -5.9643   -0.0000 O   0  0  0  0  0  0  0  0  0  0  0  0
    3.8607   -2.1873   -0.0000 O   0  0  0  0  0  0  0  0  0  0  0  0
    5.1635   -4.4464   -0.0000 C   0  0  0  0  0  0  0  0  0  0  0  0
   -1.3626   -6.7054   -0.0000 C   0  0  0  0  0  0  0  0  0  0  0  0
    6.4544   -3.6814   -0.0000 S   0  0  0  0  0  0  0  0  0  0  0  0
   -2.6774   -5.9285   -0.0000 C   0  0  0  0  0  0  0  0  0  0  0  0
   -1.3626   -8.1875   -0.0000 C   0  0  0  0  0  0  0  0  0  0  0  0
    7.7453   -4.4225   -0.0000 C   0  0  0  0  0  0  0  0  0  0  0  0
   -3.9922   -6.6695   -0.0000 C   0  0  0  0  0  0  0  0  0  0  0  0
   -2.6774   -8.9286   -0.0000 C   0  0  0  0  0  0  0  0  0  0  0  0
    7.7214   -5.9165   -0.0000 N   0  0  0  0  0  0  0  0  0  0  0  0
    9.0242   -3.6455   -0.0000 N   0  0  0  0  0  0  0  0  0  0  0  0
   -4.0041   -8.1636   -0.0000 C   0  0  0  0  0  0  0  0  0  0  0  0
    9.0123   -6.6576   -0.0000 C   0  0  0  0  0  0  0  0  0  0  0  0
   10.3151   -4.3747   -0.0000 C   0  0  0  0  0  0  0  0  0  0  0  0
    9.0003   -8.1517   -0.0000 O   0  0  0  0  0  0  0  0  0  0  0  0
   10.3031   -5.8926   -0.0000 C   0  0  0  0  0  0  0  0  0  0  0  0
   11.6060   -3.6097   -0.0000 C   0  0  0  0  0  0  0  0  0  0  0  0
  1  2  1  0  0  0  0
  2  3  2  0  0  0  0
  2  4  1  0  0  0  0
  3  5  1  0  0  0  0
  4  6  2  0  0  0  0
  5  7  1  0  0  0  0
  5  8  2  0  0  0  0
  7  9  1  0  0  0  0
  8 10  1  0  0  0  0
  9 11  2  0  0  0  0
  9 12  1  0  0  0  0
 10 13  1  0  0  0  0
 12 14  1  0  0  0  0
 13 15  2  0  0  0  0
 13 16  1  0  0  0  0
 14 17  1  0  0  0  0
 15 18  1  0  0  0  0
 16 19  2  0  0  0  0
 17 20  2  0  0  0  0
 17 21  1  0  0  0  0
 18 22  2  0  0  0  0
 20 23  1  0  0  0  0
 21 24  2  0  0  0  0
 23 25  1  0  0  0  0
 23 26  2  0  0  0  0
 24 27  1  0  0  0  0
  6  8  1  0  0  0  0
 19 22  1  0  0  0  0
 24 26  1  0  0  0  0
M  END
>  <MolRegNo>
348865

>  <m>
=

>  <Value>
1.0e5

>  <Unit>
nM

>  <Type>
IC50

>  <Ligand Efficiency>
0.20

>  <Binding Efficiency>
9.95

>  <Surface Efficiency>
4.74

>  <Assay Index>
262926

>  <Assay Category>


>  <Assay Organism>
SARS coronavirus

>  <Target ID>
20012

>  <Target Name>
SARS coronavirus 3C-like proteinase

>  <Target Organism>
SARS coronavirus

>  <Target Description>
Target is a single protein chain

>  <Sequence Accession>
P0C6U8

>  <Reference>
J. Med. Chem. 49 (12), 3485-3495 (2006)

>  <Pubmed ID>
16759091

>  <DOI>
10.1021/jm050852f

>  <InChI-Key>
KROPIDGCKMSLKK-UHFFFAOYSA-N

>  <Molecular Formula>
C19H16N3O3ClS

>  <Monoisotopic Mass>
401.060089

>  <Druglikeness>
1.4126

$$$$
Compound 314
Actelion Java MolfileCreator 1.0

 26 27  0  0  1  0  0  0  0  0999 V2000
    0.0000   -0.0000   -0.0000 O   0  0  0  0  0  0  0  0  0  0  0  0
   -0.0118    1.5147   -0.0000 C   0  0  0  0  0  0  0  0  0  0  0  0
   -1.3254    2.2721   -0.0000 O   0  0  0  0  0  0  0  0  0  0  0  0
    1.2781    2.2840   -0.0000 C   0  0  0  0  0  0  0  0  0  0  0  0
   -1.3372    3.7869   -0.0000 C   0  0  0  0  0  0  0  0  0  0  0  0
    2.0118    3.5975   -0.0000 N   0  0  0  0  0  0  0  0  0  0  0  0
    2.7691    2.2958   -0.0000 C   0  0  0  0  0  0  0  0  0  0  0  0
   -2.6508    4.5442   -0.0000 C   0  0  0  0  0  0  0  0  0  0  0  0
    4.0591    1.5621   -0.0000 C   0  0  0  0  0  0  0  0  0  0  0  0
    4.0472    0.0710   -0.0000 O   0  0  0  0  0  0  0  0  0  0  0  0
    5.3490    2.3313   -0.0000 N   0  0  0  0  0  0  0  0  0  0  0  0
    6.6744    1.6804   -0.0000 C   0  0  0  0  0  0  0  0  0  0  0  0
    7.9169    2.5206   -0.0000 C   0  0  0  0  0  0  0  0  0  0  0  0
    7.8814    4.0354   -0.0000 O   0  0  0  0  0  0  0  0  0  0  0  0
    9.2187    1.7988   -0.0000 N   0  0  0  0  0  0  0  0  0  0  0  0
   10.5086    2.5561   -0.0000 C   0  0  0  0  0  0  0  0  0  0  0  0
   10.4967    4.0709   -0.0000 C   0  0  0  0  0  0  0  0  0  0  0  0
    9.1832    4.8401   -0.0000 O   0  0  0  0  0  0  0  0  0  0  0  0
   11.7866    4.8283   -0.0000 O   0  0  0  0  0  0  0  0  0  0  0  0
   13.0765    4.0827   -0.0000 C   0  0  0  0  0  0  0  0  0  0  0  0
   14.3664    4.8401   -0.0000 C   0  0  0  0  0  0  0  0  0  0  0  0
   15.6445    4.0946   -0.0000 C   0  0  0  0  0  0  0  0  0  0  0  0
   14.3546    6.3430   -0.0000 C   0  0  0  0  0  0  0  0  0  0  0  0
   16.9344    4.8519   -0.0000 C   0  0  0  0  0  0  0  0  0  0  0  0
   15.6327    7.1004   -0.0000 C   0  0  0  0  0  0  0  0  0  0  0  0
   16.9226    6.3667   -0.0000 C   0  0  0  0  0  0  0  0  0  0  0  0
  1  2  2  0  0  0  0
  2  3  1  0  0  0  0
  4  2  1  1  0  0  0
  3  5  1  0  0  0  0
  4  6  1  0  0  0  0
  4  7  1  0  0  0  0
  5  8  1  0  0  0  0
  7  9  1  6  0  0  0
  9 10  2  0  0  0  0
  9 11  1  0  0  0  0
 11 12  1  0  0  0  0
 12 13  1  0  0  0  0
 13 14  2  0  0  0  0
 13 15  1  0  0  0  0
 15 16  1  0  0  0  0
 16 17  1  0  0  0  0
 17 18  2  0  0  0  0
 17 19  1  0  0  0  0
 19 20  1  0  0  0  0
 20 21  1  0  0  0  0
 21 22  2  0  0  0  0
 21 23  1  0  0  0  0
 22 24  1  0  0  0  0
 23 25  2  0  0  0  0
 24 26  2  0  0  0  0
  6  7  1  0  0  0  0
 25 26  1  0  0  0  0
M  END
>  <MolRegNo>
333576

>  <m>
=

>  <Value>
75

>  <Unit>
%

>  <Type>
Inhibition

>  <Ligand Efficiency>


>  <Binding Efficiency>


>  <Surface Efficiency>


>  <Assay Index>
254532

>  <Assay Category>


>  <Assay Organism>
SARS coronavirus

>  <Target ID>
20012

>  <Target Name>
SARS coronavirus 3C-like proteinase

>  <Target Organism>
SARS coronavirus

>  <Target Description>
Target is a single protein chain

>  <Sequence Accession>
P0C6U8

>  <Reference>
Bioorg. Med. Chem. Lett. 15 (24), 5365-5369 (2005)

>  <Pubmed ID>
16216498

>  <DOI>
10.1016/j.bmcl.2005.09.012

>  <InChI-Key>
KRZXMZVPCISRBZ-CABCVRRESA-N

>  <Molecular Formula>
C17H21N3O6

>  <Monoisotopic Mass>
363.143037

>  <Druglikeness>
-0.87893

$$$$
Compound 315
Actelion Java MolfileCreator 1.0

 26 27  0  0  1  0  0  0  0  0999 V2000
    0.0000   -0.0000   -0.0000 O   0  0  0  0  0  0  0  0  0  0  0  0
   -0.0118    1.5147   -0.0000 C   0  0  0  0  0  0  0  0  0  0  0  0
   -1.3254    2.2721   -0.0000 O   0  0  0  0  0  0  0  0  0  0  0  0
    1.2781    2.2840   -0.0000 C   0  0  0  0  0  0  0  0  0  0  0  0
   -1.3372    3.7869   -0.0000 C   0  0  0  0  0  0  0  0  0  0  0  0
    2.0118    3.5975   -0.0000 N   0  0  0  0  0  0  0  0  0  0  0  0
    2.7691    2.2958   -0.0000 C   0  0  0  0  0  0  0  0  0  0  0  0
   -2.6508    4.5442   -0.0000 C   0  0  0  0  0  0  0  0  0  0  0  0
    4.0591    1.5621   -0.0000 C   0  0  0  0  0  0  0  0  0  0  0  0
    4.0472    0.0710   -0.0000 O   0  0  0  0  0  0  0  0  0  0  0  0
    5.3490    2.3313   -0.0000 N   0  0  0  0  0  0  0  0  0  0  0  0
    6.6744    1.6804   -0.0000 C   0  0  0  0  0  0  0  0  0  0  0  0
    7.9169    2.5206   -0.0000 C   0  0  0  0  0  0  0  0  0  0  0  0
    7.8814    4.0354   -0.0000 O   0  0  0  0  0  0  0  0  0  0  0  0
    9.2187    1.7988   -0.0000 N   0  0  0  0  0  0  0  0  0  0  0  0
   10.5086    2.5561   -0.0000 C   0  0  0  0  0  0  0  0  0  0  0  0
   10.4967    4.0709   -0.0000 C   0  0  0  0  0  0  0  0  0  0  0  0
    9.1832    4.8401   -0.0000 O   0  0  0  0  0  0  0  0  0  0  0  0
   11.7866    4.8283   -0.0000 O   0  0  0  0  0  0  0  0  0  0  0  0
   13.0765    4.0827   -0.0000 C   0  0  0  0  0  0  0  0  0  0  0  0
   14.3664    4.8401   -0.0000 C   0  0  0  0  0  0  0  0  0  0  0  0
   15.6445    4.0946   -0.0000 C   0  0  0  0  0  0  0  0  0  0  0  0
   14.3546    6.3430   -0.0000 C   0  0  0  0  0  0  0  0  0  0  0  0
   16.9344    4.8519   -0.0000 C   0  0  0  0  0  0  0  0  0  0  0  0
   15.6327    7.1004   -0.0000 C   0  0  0  0  0  0  0  0  0  0  0  0
   16.9226    6.3667   -0.0000 C   0  0  0  0  0  0  0  0  0  0  0  0
  1  2  2  0  0  0  0
  2  3  1  0  0  0  0
  4  2  1  1  0  0  0
  3  5  1  0  0  0  0
  4  6  1  0  0  0  0
  4  7  1  0  0  0  0
  5  8  1  0  0  0  0
  7  9  1  6  0  0  0
  9 10  2  0  0  0  0
  9 11  1  0  0  0  0
 11 12  1  0  0  0  0
 12 13  1  0  0  0  0
 13 14  2  0  0  0  0
 13 15  1  0  0  0  0
 15 16  1  0  0  0  0
 16 17  1  0  0  0  0
 17 18  2  0  0  0  0
 17 19  1  0  0  0  0
 19 20  1  0  0  0  0
 20 21  1  0  0  0  0
 21 22  2  0  0  0  0
 21 23  1  0  0  0  0
 22 24  1  0  0  0  0
 23 25  2  0  0  0  0
 24 26  2  0  0  0  0
  6  7  1  0  0  0  0
 25 26  1  0  0  0  0
M  END
>  <MolRegNo>
333576

>  <m>
=

>  <Value>
54

>  <Unit>
%

>  <Type>
Inhibition

>  <Ligand Efficiency>


>  <Binding Efficiency>


>  <Surface Efficiency>


>  <Assay Index>
254531

>  <Assay Category>


>  <Assay Organism>
SARS coronavirus

>  <Target ID>
20012

>  <Target Name>
SARS coronavirus 3C-like proteinase

>  <Target Organism>
SARS coronavirus

>  <Target Description>
Target is a single protein chain

>  <Sequence Accession>
P0C6U8

>  <Reference>
Bioorg. Med. Chem. Lett. 15 (24), 5365-5369 (2005)

>  <Pubmed ID>
16216498

>  <DOI>
10.1016/j.bmcl.2005.09.012

>  <InChI-Key>
KRZXMZVPCISRBZ-CABCVRRESA-N

>  <Molecular Formula>
C17H21N3O6

>  <Monoisotopic Mass>
363.143037

>  <Druglikeness>
-0.87893

$$$$
Compound 316
Actelion Java MolfileCreator 1.0

 35 37  0  0  0  0  0  0  0  0999 V2000
    0.0000   -0.0000   -0.0000 O   0  0  0  0  0  0  0  0  0  0  0  0
   -0.0118   -1.4922   -0.0000 C   0  0  0  0  0  0  0  0  0  0  0  0
    1.1961   -2.3685   -0.0000 N   0  0  0  0  0  0  0  0  0  0  0  0
   -1.2316   -2.3685   -0.0000 C   0  0  0  0  0  0  0  0  0  0  0  0
    0.7106   -3.7897   -0.0000 C   0  0  0  0  0  0  0  0  0  0  0  0
    2.6172   -1.8948   -0.0000 C   0  0  0  0  0  0  0  0  0  0  0  0
   -2.6764   -1.8948   -0.0000 O   0  0  0  0  0  0  0  0  0  0  0  0
   -0.7816   -3.7897   -0.0000 C   0  0  0  0  0  0  0  0  0  0  0  0
    1.4922   -5.0568   -0.0000 C   0  0  0  0  0  0  0  0  0  0  0  0
    3.7186   -2.8896   -0.0000 C   0  0  0  0  0  0  0  0  0  0  0  0
   -1.5277   -5.0924   -0.0000 C   0  0  0  0  0  0  0  0  0  0  0  0
    2.9725   -4.9976   -0.0000 C   0  0  0  0  0  0  0  0  0  0  0  0
    0.7579   -6.3595   -0.0000 C   0  0  0  0  0  0  0  0  0  0  0  0
    5.1397   -2.4159   -0.0000 N   0  0  0  0  0  0  0  0  0  0  0  0
   -0.7698   -6.3714   -0.0000 O   0  0  0  0  0  0  0  0  0  0  0  0
   -3.0436   -5.0924   -0.0000 C   0  0  0  0  0  0  0  0  0  0  0  0
    3.7541   -6.2648   -0.0000 C   0  0  0  0  0  0  0  0  0  0  0  0
    1.5395   -7.6267   -0.0000 C   0  0  0  0  0  0  0  0  0  0  0  0
    6.2411   -3.4107   -0.0000 C   0  0  0  0  0  0  0  0  0  0  0  0
    5.4476   -0.9356   -0.0000 C   0  0  0  0  0  0  0  0  0  0  0  0
   -3.7778   -6.3832   -0.0000 C   0  0  0  0  0  0  0  0  0  0  0  0
   -3.8133   -3.7778   -0.0000 C   0  0  0  0  0  0  0  0  0  0  0  0
    5.2463   -6.2056   -0.0000 O   0  0  0  0  0  0  0  0  0  0  0  0
    3.0317   -7.5912   -0.0000 C   0  0  0  0  0  0  0  0  0  0  0  0
   -5.2937   -6.3950   -0.0000 C   0  0  0  0  0  0  0  0  0  0  0  0
   -3.0199   -7.6622   -0.0000 C   0  0  0  0  0  0  0  0  0  0  0  0
   -5.3292   -3.7778   -0.0000 C   0  0  0  0  0  0  0  0  0  0  0  0
    6.0279   -7.4727   -0.0000 C   0  0  0  0  0  0  0  0  0  0  0  0
    3.8133   -8.8583   -0.0000 O   0  0  0  0  0  0  0  0  0  0  0  0
   -6.0753   -5.0805   -0.0000 C   0  0  0  0  0  0  0  0  0  0  0  0
   -7.5912   -5.0924   -0.0000 O   0  0  0  0  0  0  0  0  0  0  0  0
   -8.3372   -6.3950   -0.0000 C   0  0  0  0  0  0  0  0  0  0  0  0
   -9.8531   -6.4069   -0.0000 C   0  0  0  0  0  0  0  0  0  0  0  0
  -10.5992   -7.7096   -0.0000 C   0  0  0  0  0  0  0  0  0  0  0  0
  -10.6347   -5.1042   -0.0000 C   0  0  0  0  0  0  0  0  0  0  0  0
  1  2  2  0  0  0  0
  2  3  1  0  0  0  0
  2  4  1  0  0  0  0
  3  5  1  0  0  0  0
  3  6  1  0  0  0  0
  4  7  1  0  0  0  0
  4  8  2  0  0  0  0
  5  9  1  0  0  0  0
  6 10  1  0  0  0  0
  8 11  1  0  0  0  0
  9 12  2  0  0  0  0
  9 13  1  0  0  0  0
 10 14  1  0  0  0  0
 11 15  2  0  0  0  0
 11 16  1  0  0  0  0
 12 17  1  0  0  0  0
 13 18  2  0  0  0  0
 14 19  1  0  0  0  0
 14 20  1  0  0  0  0
 16 21  2  0  0  0  0
 16 22  1  0  0  0  0
 17 23  1  0  0  0  0
 17 24  2  0  0  0  0
 21 25  1  0  0  0  0
 21 26  1  0  0  0  0
 22 27  2  0  0  0  0
 23 28  1  0  0  0  0
 24 29  1  0  0  0  0
 25 30  2  0  0  0  0
 30 31  1  0  0  0  0
 31 32  1  0  0  0  0
 32 33  1  0  0  0  0
 33 34  1  0  0  0  0
 33 35  1  0  0  0  0
  5  8  1  0  0  0  0
 18 24  1  0  0  0  0
 27 30  1  0  0  0  0
M  END
>  <MolRegNo>
1145369

>  <m>
=

>  <Value>
62790

>  <Unit>
nM

>  <Type>
IC50

>  <Ligand Efficiency>
0.16

>  <Binding Efficiency>
8.71

>  <Surface Efficiency>
4.22

>  <Assay Index>
589666

>  <Assay Category>


>  <Assay Organism>
SARS coronavirus

>  <Target ID>
101075

>  <Target Name>
Replicase polyprotein 1ab

>  <Target Organism>
SARS coronavirus

>  <Target Description>
Target is a single protein chain

>  <Sequence Accession>
P0C6X7

>  <Reference>
Bioorg. Med. Chem. Lett. 21 (10), 3088-3091 (2011)

>  <Pubmed ID>
21470860

>  <DOI>
10.1016/j.bmcl.2011.03.034

>  <InChI-Key>
KUJODEHOISHKBE-UHFFFAOYSA-N

>  <Molecular Formula>
C27H34N2O6

>  <Monoisotopic Mass>
482.241688

>  <Druglikeness>
6.115

$$$$
Compound 317
Actelion Java MolfileCreator 1.0

 35 37  0  0  0  0  0  0  0  0999 V2000
    0.0000   -0.0000   -0.0000 O   0  0  0  0  0  0  0  0  0  0  0  0
   -0.0118   -1.4922   -0.0000 C   0  0  0  0  0  0  0  0  0  0  0  0
    1.1961   -2.3685   -0.0000 N   0  0  0  0  0  0  0  0  0  0  0  0
   -1.2316   -2.3685   -0.0000 C   0  0  0  0  0  0  0  0  0  0  0  0
    0.7106   -3.7897   -0.0000 C   0  0  0  0  0  0  0  0  0  0  0  0
    2.6172   -1.8948   -0.0000 C   0  0  0  0  0  0  0  0  0  0  0  0
   -2.6764   -1.8948   -0.0000 O   0  0  0  0  0  0  0  0  0  0  0  0
   -0.7816   -3.7897   -0.0000 C   0  0  0  0  0  0  0  0  0  0  0  0
    1.4922   -5.0568   -0.0000 C   0  0  0  0  0  0  0  0  0  0  0  0
    3.7186   -2.8896   -0.0000 C   0  0  0  0  0  0  0  0  0  0  0  0
   -1.5277   -5.0924   -0.0000 C   0  0  0  0  0  0  0  0  0  0  0  0
    2.9725   -4.9976   -0.0000 C   0  0  0  0  0  0  0  0  0  0  0  0
    0.7579   -6.3595   -0.0000 C   0  0  0  0  0  0  0  0  0  0  0  0
    5.1397   -2.4159   -0.0000 N   0  0  0  0  0  0  0  0  0  0  0  0
   -0.7698   -6.3714   -0.0000 O   0  0  0  0  0  0  0  0  0  0  0  0
   -3.0436   -5.0924   -0.0000 C   0  0  0  0  0  0  0  0  0  0  0  0
    3.7541   -6.2648   -0.0000 C   0  0  0  0  0  0  0  0  0  0  0  0
    1.5395   -7.6267   -0.0000 C   0  0  0  0  0  0  0  0  0  0  0  0
    6.2411   -3.4107   -0.0000 C   0  0  0  0  0  0  0  0  0  0  0  0
    5.4476   -0.9356   -0.0000 C   0  0  0  0  0  0  0  0  0  0  0  0
   -3.7778   -6.3832   -0.0000 C   0  0  0  0  0  0  0  0  0  0  0  0
   -3.8133   -3.7778   -0.0000 C   0  0  0  0  0  0  0  0  0  0  0  0
    5.2463   -6.2056   -0.0000 O   0  0  0  0  0  0  0  0  0  0  0  0
    3.0317   -7.5912   -0.0000 C   0  0  0  0  0  0  0  0  0  0  0  0
   -5.2937   -6.3950   -0.0000 C   0  0  0  0  0  0  0  0  0  0  0  0
   -3.0199   -7.6622   -0.0000 C   0  0  0  0  0  0  0  0  0  0  0  0
   -5.3292   -3.7778   -0.0000 C   0  0  0  0  0  0  0  0  0  0  0  0
    6.0279   -7.4727   -0.0000 C   0  0  0  0  0  0  0  0  0  0  0  0
    3.8133   -8.8583   -0.0000 O   0  0  0  0  0  0  0  0  0  0  0  0
   -6.0753   -5.0805   -0.0000 C   0  0  0  0  0  0  0  0  0  0  0  0
   -7.5912   -5.0924   -0.0000 O   0  0  0  0  0  0  0  0  0  0  0  0
   -8.3372   -6.3950   -0.0000 C   0  0  0  0  0  0  0  0  0  0  0  0
   -9.8531   -6.4069   -0.0000 C   0  0  0  0  0  0  0  0  0  0  0  0
  -10.5992   -7.7096   -0.0000 C   0  0  0  0  0  0  0  0  0  0  0  0
  -10.6347   -5.1042   -0.0000 C   0  0  0  0  0  0  0  0  0  0  0  0
  1  2  2  0  0  0  0
  2  3  1  0  0  0  0
  2  4  1  0  0  0  0
  3  5  1  0  0  0  0
  3  6  1  0  0  0  0
  4  7  1  0  0  0  0
  4  8  2  0  0  0  0
  5  9  1  0  0  0  0
  6 10  1  0  0  0  0
  8 11  1  0  0  0  0
  9 12  2  0  0  0  0
  9 13  1  0  0  0  0
 10 14  1  0  0  0  0
 11 15  2  0  0  0  0
 11 16  1  0  0  0  0
 12 17  1  0  0  0  0
 13 18  2  0  0  0  0
 14 19  1  0  0  0  0
 14 20  1  0  0  0  0
 16 21  2  0  0  0  0
 16 22  1  0  0  0  0
 17 23  1  0  0  0  0
 17 24  2  0  0  0  0
 21 25  1  0  0  0  0
 21 26  1  0  0  0  0
 22 27  2  0  0  0  0
 23 28  1  0  0  0  0
 24 29  1  0  0  0  0
 25 30  2  0  0  0  0
 30 31  1  0  0  0  0
 31 32  1  0  0  0  0
 32 33  1  0  0  0  0
 33 34  1  0  0  0  0
 33 35  1  0  0  0  0
  5  8  1  0  0  0  0
 18 24  1  0  0  0  0
 27 30  1  0  0  0  0
M  END
>  <MolRegNo>
1145369

>  <m>
=

>  <Value>
61.36

>  <Unit>
%

>  <Type>
Inhibition

>  <Ligand Efficiency>


>  <Binding Efficiency>


>  <Surface Efficiency>


>  <Assay Index>
589665

>  <Assay Category>


>  <Assay Organism>
SARS coronavirus

>  <Target ID>
101075

>  <Target Name>
Replicase polyprotein 1ab

>  <Target Organism>
SARS coronavirus

>  <Target Description>
Target is a single protein chain

>  <Sequence Accession>
P0C6X7

>  <Reference>
Bioorg. Med. Chem. Lett. 21 (10), 3088-3091 (2011)

>  <Pubmed ID>
21470860

>  <DOI>
10.1016/j.bmcl.2011.03.034

>  <InChI-Key>
KUJODEHOISHKBE-UHFFFAOYSA-N

>  <Molecular Formula>
C27H34N2O6

>  <Monoisotopic Mass>
482.241688

>  <Druglikeness>
6.115

$$$$
Compound 318
Actelion Java MolfileCreator 1.0

 11 11  0  0  1  0  0  0  0  0999 V2000
    0.0000   -0.0000   -0.0000 O   0  0  0  0  0  0  0  0  0  0  0  0
   -0.0118    1.5133   -0.0000 C   0  0  0  0  0  0  0  0  0  0  0  0
   -1.3242    2.2700   -0.0000 O   0  0  0  0  0  0  0  0  0  0  0  0
    1.2769    2.2818   -0.0000 C   0  0  0  0  0  0  0  0  0  0  0  0
   -1.3360    3.7833   -0.0000 C   0  0  0  0  0  0  0  0  0  0  0  0
    2.0099    3.5942   -0.0000 N   0  0  0  0  0  0  0  0  0  0  0  0
    2.7666    2.2936   -0.0000 C   0  0  0  0  0  0  0  0  0  0  0  0
    4.0671    1.5725   -0.0000 C   0  0  0  0  0  0  0  0  0  0  0  0
    4.0789    0.0828   -0.0000 O   0  0  0  0  0  0  0  0  0  0  0  0
    5.3440    2.3528   -0.0000 O   0  0  0  0  0  0  0  0  0  0  0  0
    6.6445    1.6316   -0.0000 C   0  0  0  0  0  0  0  0  0  0  0  0
  1  2  2  0  0  0  0
  2  3  1  0  0  0  0
  4  2  1  1  0  0  0
  3  5  1  0  0  0  0
  4  6  1  0  0  0  0
  4  7  1  0  0  0  0
  7  8  1  1  0  0  0
  8  9  2  0  0  0  0
  8 10  1  0  0  0  0
 10 11  1  0  0  0  0
  6  7  1  0  0  0  0
M  END
>  <MolRegNo>
333631

>  <m>
<

>  <Value>
10

>  <Unit>
%

>  <Type>
Inhibition

>  <Ligand Efficiency>


>  <Binding Efficiency>


>  <Surface Efficiency>


>  <Assay Index>
254534

>  <Assay Category>


>  <Assay Organism>
SARS coronavirus

>  <Target ID>
20012

>  <Target Name>
SARS coronavirus 3C-like proteinase

>  <Target Organism>
SARS coronavirus

>  <Target Description>
Target is a single protein chain

>  <Sequence Accession>
P0C6U8

>  <Reference>
Bioorg. Med. Chem. Lett. 15 (24), 5365-5369 (2005)

>  <Pubmed ID>
16216498

>  <DOI>
10.1016/j.bmcl.2005.09.012

>  <InChI-Key>
KVPCJOIALQVHIX-IMJSIDKUSA-N

>  <Molecular Formula>
C6H9NO4

>  <Monoisotopic Mass>
159.053159

>  <Druglikeness>
-1.1395

$$$$
Compound 319
Actelion Java MolfileCreator 1.0

 23 26  0  0  0  0  0  0  0  0999 V2000
    0.0000   -0.0000   -0.0000 S   0  0  0  0  0  0  0  0  0  0  0  0
    1.2987   -0.7438   -0.0000 C   0  0  0  0  0  0  0  0  0  0  0  0
   -1.1216   -1.0035   -0.0000 C   0  0  0  0  0  0  0  0  0  0  0  0
    0.9681   -2.1842   -0.0000 C   0  0  0  0  0  0  0  0  0  0  0  0
    2.6918   -0.2715   -0.0000 C   0  0  0  0  0  0  0  0  0  0  0  0
   -0.5195   -2.3494   -0.0000 C   0  0  0  0  0  0  0  0  0  0  0  0
   -2.5856   -0.6848   -0.0000 C   0  0  0  0  0  0  0  0  0  0  0  0
    2.0543   -3.1759   -0.0000 C   0  0  0  0  0  0  0  0  0  0  0  0
    3.7898   -1.2633   -0.0000 C   0  0  0  0  0  0  0  0  0  0  0  0
   -3.0696    0.7556   -0.0000 N   0  0  0  0  0  0  0  0  0  0  0  0
    3.4710   -2.7154   -0.0000 C   0  0  0  0  0  0  0  0  0  0  0  0
   -2.1960    1.9835   -0.0000 C   0  0  0  0  0  0  0  0  0  0  0  0
   -4.5100    1.2279   -0.0000 C   0  0  0  0  0  0  0  0  0  0  0  0
   -0.7084    1.9953   -0.0000 O   0  0  0  0  0  0  0  0  0  0  0  0
   -3.0932    3.2113   -0.0000 C   0  0  0  0  0  0  0  0  0  0  0  0
   -4.5218    2.7391   -0.0000 C   0  0  0  0  0  0  0  0  0  0  0  0
   -5.8205    0.4841   -0.0000 C   0  0  0  0  0  0  0  0  0  0  0  0
   -2.6328    4.6517   -0.0000 O   0  0  0  0  0  0  0  0  0  0  0  0
   -5.8323    3.4947   -0.0000 C   0  0  0  0  0  0  0  0  0  0  0  0
   -7.1310    1.2515   -0.0000 C   0  0  0  0  0  0  0  0  0  0  0  0
   -7.1428    2.7627   -0.0000 C   0  0  0  0  0  0  0  0  0  0  0  0
   -8.4533    3.5183   -0.0000 O   0  0  0  0  0  0  0  0  0  0  0  0
   -8.4651    5.0295   -0.0000 C   0  0  0  0  0  0  0  0  0  0  0  0
  1  2  1  0  0  0  0
  1  3  1  0  0  0  0
  2  4  2  0  0  0  0
  2  5  1  0  0  0  0
  3  6  2  0  0  0  0
  3  7  1  0  0  0  0
  4  8  1  0  0  0  0
  5  9  2  0  0  0  0
  7 10  1  0  0  0  0
  8 11  2  0  0  0  0
 10 12  1  0  0  0  0
 10 13  1  0  0  0  0
 12 14  2  0  0  0  0
 12 15  1  0  0  0  0
 13 16  2  0  0  0  0
 13 17  1  0  0  0  0
 15 18  2  0  0  0  0
 16 19  1  0  0  0  0
 17 20  2  0  0  0  0
 19 21  2  0  0  0  0
 21 22  1  0  0  0  0
 22 23  1  0  0  0  0
  4  6  1  0  0  0  0
  9 11  1  0  0  0  0
 15 16  1  0  0  0  0
 20 21  1  0  0  0  0
M  END
>  <MolRegNo>
316475

>  <m>
=

>  <Value>
27

>  <Unit>
%

>  <Type>
Inhibition

>  <Ligand Efficiency>


>  <Binding Efficiency>


>  <Surface Efficiency>


>  <Assay Index>
240686

>  <Assay Category>


>  <Assay Organism>
SARS coronavirus

>  <Target ID>
20012

>  <Target Name>
SARS coronavirus 3C-like proteinase

>  <Target Organism>
SARS coronavirus

>  <Target Description>
Target is a single protein chain

>  <Sequence Accession>
P0C6U8

>  <Reference>
Bioorg. Med. Chem. Lett. 15 (12), 3058-3062 (2005)

>  <Pubmed ID>
15896959

>  <DOI>
10.1016/j.bmcl.2005.04.027

>  <InChI-Key>
LEHOBDRDXQLGPN-UHFFFAOYSA-N

>  <Molecular Formula>
C18H13NO3S

>  <Monoisotopic Mass>
323.061614

>  <Druglikeness>
1.245

$$$$
Compound 320
Actelion Java MolfileCreator 1.0

 45 48  0  0  0  0  0  0  0  0999 V2000
    0.0000   -0.0000   -0.0000 Cl  0  0  0  0  0  0  0  0  0  0  0  0
   -0.0592   -1.4810   -0.0000 C   0  0  0  0  0  0  0  0  0  0  0  0
    1.2085   -2.2630   -0.0000 C   0  0  0  0  0  0  0  0  0  0  0  0
   -1.3981   -2.1800   -0.0000 C   0  0  0  0  0  0  0  0  0  0  0  0
    1.1493   -3.7558   -0.0000 C   0  0  0  0  0  0  0  0  0  0  0  0
   -1.4573   -3.6610   -0.0000 C   0  0  0  0  0  0  0  0  0  0  0  0
   -0.1896   -4.4548   -0.0000 C   0  0  0  0  0  0  0  0  0  0  0  0
   -0.2488   -5.9477   -0.0000 C   0  0  0  0  0  0  0  0  0  0  0  0
    1.0189   -6.7296   -0.0000 C   0  0  0  0  0  0  0  0  0  0  0  0
   -1.5876   -6.6467   -0.0000 C   0  0  0  0  0  0  0  0  0  0  0  0
    2.3340   -6.0069   -0.0000 C   0  0  0  0  0  0  0  0  0  0  0  0
    0.9597   -8.2225   -0.0000 C   0  0  0  0  0  0  0  0  0  0  0  0
   -1.6469   -8.1395   -0.0000 C   0  0  0  0  0  0  0  0  0  0  0  0
    3.6492   -5.2842   -0.0000 N   0  0  0  0  0  0  0  0  0  0  0  0
    2.2274   -9.0044   -0.0000 O   0  0  0  0  0  0  0  0  0  0  0  0
   -0.3791   -8.9215   -0.0000 N   0  0  0  0  0  0  0  0  0  0  0  0
   -2.9857   -8.8386   -0.0000 C   0  0  0  0  0  0  0  0  0  0  0  0
   -0.4384  -10.4025   -0.0000 C   0  0  0  0  0  0  0  0  0  0  0  0
   -3.0449  -10.3314   -0.0000 N   0  0  0  0  0  0  0  0  0  0  0  0
   -4.2771   -8.0329   -0.0000 C   0  0  0  0  0  0  0  0  0  0  0  0
   -1.7772  -11.1015   -0.0000 O   0  0  0  0  0  0  0  0  0  0  0  0
    0.8294  -11.1845   -0.0000 C   0  0  0  0  0  0  0  0  0  0  0  0
   -4.3837  -11.0304   -0.0000 C   0  0  0  0  0  0  0  0  0  0  0  0
   -5.6159   -8.7319   -0.0000 C   0  0  0  0  0  0  0  0  0  0  0  0
   -1.8364  -12.5825   -0.0000 C   0  0  0  0  0  0  0  0  0  0  0  0
    2.1445  -10.4617   -0.0000 O   0  0  0  0  0  0  0  0  0  0  0  0
    0.7701  -12.6773   -0.0000 C   0  0  0  0  0  0  0  0  0  0  0  0
   -5.6752  -10.2248   -0.0000 C   0  0  0  0  0  0  0  0  0  0  0  0
   -0.5687  -13.3645   -0.0000 C   0  0  0  0  0  0  0  0  0  0  0  0
   -3.1752  -13.2815   -0.0000 C   0  0  0  0  0  0  0  0  0  0  0  0
    3.4122  -11.2437   -0.0000 C   0  0  0  0  0  0  0  0  0  0  0  0
    2.0378  -13.4593   -0.0000 O   0  0  0  0  0  0  0  0  0  0  0  0
   -0.6279  -14.8573   -0.0000 O   0  0  0  0  0  0  0  0  0  0  0  0
   -4.4667  -12.4759   -0.0000 O   0  0  0  0  0  0  0  0  0  0  0  0
    3.3530  -12.7365   -0.0000 O   0  0  0  0  0  0  0  0  0  0  0  0
    4.7273  -10.5210   -0.0000 C   0  0  0  0  0  0  0  0  0  0  0  0
    1.9786  -14.9521   -0.0000 C   0  0  0  0  0  0  0  0  0  0  0  0
   -1.9668  -15.5563   -0.0000 C   0  0  0  0  0  0  0  0  0  0  0  0
   -5.8055  -13.1749   -0.0000 C   0  0  0  0  0  0  0  0  0  0  0  0
    0.6398  -15.6511   -0.0000 O   0  0  0  0  0  0  0  0  0  0  0  0
    3.2463  -15.7341   -0.0000 C   0  0  0  0  0  0  0  0  0  0  0  0
   -3.2582  -14.7507   -0.0000 O   0  0  0  0  0  0  0  0  0  0  0  0
   -2.0260  -17.0492   -0.0000 C   0  0  0  0  0  0  0  0  0  0  0  0
   -5.8647  -14.6677   -0.0000 O   0  0  0  0  0  0  0  0  0  0  0  0
   -7.0969  -12.3692   -0.0000 C   0  0  0  0  0  0  0  0  0  0  0  0
  1  2  1  0  0  0  0
  2  3  2  0  0  0  0
  2  4  1  0  0  0  0
  3  5  1  0  0  0  0
  4  6  2  0  0  0  0
  5  7  2  0  0  0  0
  7  8  1  0  0  0  0
  8  9  2  0  0  0  0
  8 10  1  0  0  0  0
  9 11  1  0  0  0  0
  9 12  1  0  0  0  0
 10 13  2  0  0  0  0
 11 14  3  0  0  0  0
 12 15  2  0  0  0  0
 12 16  1  0  0  0  0
 13 17  1  0  0  0  0
 18 16  1  6  0  0  0
 17 19  2  0  0  0  0
 17 20  1  0  0  0  0
 18 21  1  0  0  0  0
 18 22  1  0  0  0  0
 19 23  1  0  0  0  0
 20 24  2  0  0  0  0
 21 25  1  0  0  0  0
 22 26  1  1  0  0  0
 22 27  1  0  0  0  0
 23 28  2  0  0  0  0
 25 29  1  0  0  0  0
 25 30  1  6  0  0  0
 26 31  1  0  0  0  0
 27 32  1  6  0  0  0
 29 33  1  1  0  0  0
 30 34  1  0  0  0  0
 31 35  2  0  0  0  0
 31 36  1  0  0  0  0
 32 37  1  0  0  0  0
 33 38  1  0  0  0  0
 34 39  1  0  0  0  0
 37 40  2  0  0  0  0
 37 41  1  0  0  0  0
 38 42  2  0  0  0  0
 38 43  1  0  0  0  0
 39 44  2  0  0  0  0
 39 45  1  0  0  0  0
  6  7  1  0  0  0  0
 13 16  1  0  0  0  0
 24 28  1  0  0  0  0
 27 29  1  0  0  0  0
M  END
>  <MolRegNo>
1619989

>  <m>
=

>  <Value>
8300

>  <Unit>
nM

>  <Type>
EC50

>  <Ligand Efficiency>


>  <Binding Efficiency>


>  <Surface Efficiency>


>  <Assay Index>
825742

>  <Assay Category>


>  <Assay Organism>
SARS coronavirus

>  <Target ID>
100499

>  <Target Name>
SARS coronavirus

>  <Target Organism>
SARS coronavirus

>  <Target Description>
Target is a complete organism

>  <Sequence Accession>


>  <Reference>


>  <Pubmed ID>
24486419

>  <DOI>
10.1016/j.ejmech.2013.12.055

>  <InChI-Key>
LFPHQWJKQSFZFF-CXTCLPNASA-N

>  <Molecular Formula>
C31H28N3O10Cl

>  <Monoisotopic Mass>
637.146324

>  <Druglikeness>
-0.60169

$$$$
Compound 321
Actelion Java MolfileCreator 1.0

 16 17  0  0  0  0  0  0  0  0999 V2000
    0.0000   -0.0000   -0.0000 O   0  0  0  0  0  0  0  0  0  0  0  0
   -1.2961   -0.7491   -0.0000 C   0  0  0  0  0  0  0  0  0  0  0  0
   -2.6042   -1.4864   -0.0000 C   0  0  0  0  0  0  0  0  0  0  0  0
   -0.0119   -1.4983   -0.0000 C   0  0  0  0  0  0  0  0  0  0  0  0
   -1.3199    0.7729   -0.0000 C   0  0  0  0  0  0  0  0  0  0  0  0
   -2.6280   -2.9847   -0.0000 C   0  0  0  0  0  0  0  0  0  0  0  0
   -3.9241   -0.7254   -0.0000 C   0  0  0  0  0  0  0  0  0  0  0  0
   -0.0238   -2.9847   -0.0000 C   0  0  0  0  0  0  0  0  0  0  0  0
   -3.9360   -3.7220   -0.0000 C   0  0  0  0  0  0  0  0  0  0  0  0
   -1.3437   -3.7339   -0.0000 C   0  0  0  0  0  0  0  0  0  0  0  0
   -5.2322   -1.4626   -0.0000 C   0  0  0  0  0  0  0  0  0  0  0  0
   -5.2440   -2.9609   -0.0000 C   0  0  0  0  0  0  0  0  0  0  0  0
   -1.3675   -5.2203   -0.0000 C   0  0  0  0  0  0  0  0  0  0  0  0
   -6.5521   -3.6982   -0.0000 C   0  0  0  0  0  0  0  0  0  0  0  0
   -0.0832   -5.9575   -0.0000 C   0  0  0  0  0  0  0  0  0  0  0  0
   -2.6755   -5.9456   -0.0000 C   0  0  0  0  0  0  0  0  0  0  0  0
  2  1  1  1  0  0  0
  2  3  1  0  0  0  0
  2  4  1  0  0  0  0
  2  5  1  0  0  0  0
  3  6  1  0  0  0  0
  3  7  1  6  0  0  0
  4  8  1  0  0  0  0
  6  9  1  1  0  0  0
  6 10  1  0  0  0  0
  7 11  1  0  0  0  0
  9 12  2  0  0  0  0
 10 13  1  6  0  0  0
 12 14  1  0  0  0  0
 13 15  1  0  0  0  0
 13 16  1  0  0  0  0
  8 10  1  0  0  0  0
 11 12  1  0  0  0  0
M  END
>  <MolRegNo>
443899

>  <m>
=

>  <Value>
4440

>  <Unit>
nM

>  <Type>
EC50

>  <Ligand Efficiency>


>  <Binding Efficiency>


>  <Surface Efficiency>


>  <Assay Index>
294026

>  <Assay Category>


>  <Assay Organism>
SARS coronavirus

>  <Target ID>
100499

>  <Target Name>
SARS coronavirus

>  <Target Organism>
SARS coronavirus

>  <Target Description>
Target is a complete organism

>  <Sequence Accession>


>  <Reference>
J. Med. Chem. 50 (17), 4087-4095 (2007)

>  <Pubmed ID>
17663539

>  <DOI>
10.1021/jm070295s

>  <InChI-Key>
LHYHMMRYTDARSZ-XGUBFFRZSA-N

>  <Molecular Formula>
C15H26O

>  <Monoisotopic Mass>
222.198365

>  <Druglikeness>
-4.2367

$$$$
Compound 322
Actelion Java MolfileCreator 1.0

 16 17  0  0  0  0  0  0  0  0999 V2000
    0.0000   -0.0000   -0.0000 O   0  0  0  0  0  0  0  0  0  0  0  0
   -1.2961   -0.7491   -0.0000 C   0  0  0  0  0  0  0  0  0  0  0  0
   -2.6042   -1.4864   -0.0000 C   0  0  0  0  0  0  0  0  0  0  0  0
   -0.0119   -1.4983   -0.0000 C   0  0  0  0  0  0  0  0  0  0  0  0
   -1.3199    0.7729   -0.0000 C   0  0  0  0  0  0  0  0  0  0  0  0
   -2.6280   -2.9847   -0.0000 C   0  0  0  0  0  0  0  0  0  0  0  0
   -3.9241   -0.7254   -0.0000 C   0  0  0  0  0  0  0  0  0  0  0  0
   -0.0238   -2.9847   -0.0000 C   0  0  0  0  0  0  0  0  0  0  0  0
   -3.9360   -3.7220   -0.0000 C   0  0  0  0  0  0  0  0  0  0  0  0
   -1.3437   -3.7339   -0.0000 C   0  0  0  0  0  0  0  0  0  0  0  0
   -5.2322   -1.4626   -0.0000 C   0  0  0  0  0  0  0  0  0  0  0  0
   -5.2440   -2.9609   -0.0000 C   0  0  0  0  0  0  0  0  0  0  0  0
   -1.3675   -5.2203   -0.0000 C   0  0  0  0  0  0  0  0  0  0  0  0
   -6.5521   -3.6982   -0.0000 C   0  0  0  0  0  0  0  0  0  0  0  0
   -0.0832   -5.9575   -0.0000 C   0  0  0  0  0  0  0  0  0  0  0  0
   -2.6755   -5.9456   -0.0000 C   0  0  0  0  0  0  0  0  0  0  0  0
  2  1  1  1  0  0  0
  2  3  1  0  0  0  0
  2  4  1  0  0  0  0
  2  5  1  0  0  0  0
  3  6  1  0  0  0  0
  3  7  1  6  0  0  0
  4  8  1  0  0  0  0
  6  9  1  1  0  0  0
  6 10  1  0  0  0  0
  7 11  1  0  0  0  0
  9 12  2  0  0  0  0
 10 13  1  6  0  0  0
 12 14  1  0  0  0  0
 13 15  1  0  0  0  0
 13 16  1  0  0  0  0
  8 10  1  0  0  0  0
 11 12  1  0  0  0  0
M  END
>  <MolRegNo>
443899

>  <m>
=

>  <Value>
50

>  <Unit>
%

>  <Type>
Inhibition

>  <Ligand Efficiency>


>  <Binding Efficiency>


>  <Surface Efficiency>


>  <Assay Index>
294025

>  <Assay Category>


>  <Assay Organism>
SARS coronavirus

>  <Target ID>
100499

>  <Target Name>
SARS coronavirus

>  <Target Organism>
SARS coronavirus

>  <Target Description>
Target is a complete organism

>  <Sequence Accession>


>  <Reference>
J. Med. Chem. 50 (17), 4087-4095 (2007)

>  <Pubmed ID>
17663539

>  <DOI>
10.1021/jm070295s

>  <InChI-Key>
LHYHMMRYTDARSZ-XGUBFFRZSA-N

>  <Molecular Formula>
C15H26O

>  <Monoisotopic Mass>
222.198365

>  <Druglikeness>
-4.2367

$$$$
Compound 323
Actelion Java MolfileCreator 1.0

 16 17  0  0  0  0  0  0  0  0999 V2000
    0.0000   -0.0000   -0.0000 O   0  0  0  0  0  0  0  0  0  0  0  0
   -1.2961   -0.7491   -0.0000 C   0  0  0  0  0  0  0  0  0  0  0  0
   -2.6042   -1.4864   -0.0000 C   0  0  0  0  0  0  0  0  0  0  0  0
   -0.0119   -1.4983   -0.0000 C   0  0  0  0  0  0  0  0  0  0  0  0
   -1.3199    0.7729   -0.0000 C   0  0  0  0  0  0  0  0  0  0  0  0
   -2.6280   -2.9847   -0.0000 C   0  0  0  0  0  0  0  0  0  0  0  0
   -3.9241   -0.7254   -0.0000 C   0  0  0  0  0  0  0  0  0  0  0  0
   -0.0238   -2.9847   -0.0000 C   0  0  0  0  0  0  0  0  0  0  0  0
   -3.9360   -3.7220   -0.0000 C   0  0  0  0  0  0  0  0  0  0  0  0
   -1.3437   -3.7339   -0.0000 C   0  0  0  0  0  0  0  0  0  0  0  0
   -5.2322   -1.4626   -0.0000 C   0  0  0  0  0  0  0  0  0  0  0  0
   -5.2440   -2.9609   -0.0000 C   0  0  0  0  0  0  0  0  0  0  0  0
   -1.3675   -5.2203   -0.0000 C   0  0  0  0  0  0  0  0  0  0  0  0
   -6.5521   -3.6982   -0.0000 C   0  0  0  0  0  0  0  0  0  0  0  0
   -0.0832   -5.9575   -0.0000 C   0  0  0  0  0  0  0  0  0  0  0  0
   -2.6755   -5.9456   -0.0000 C   0  0  0  0  0  0  0  0  0  0  0  0
  2  1  1  1  0  0  0
  2  3  1  0  0  0  0
  2  4  1  0  0  0  0
  2  5  1  0  0  0  0
  3  6  1  0  0  0  0
  3  7  1  6  0  0  0
  4  8  1  0  0  0  0
  6  9  1  1  0  0  0
  6 10  1  0  0  0  0
  7 11  1  0  0  0  0
  9 12  2  0  0  0  0
 10 13  1  6  0  0  0
 12 14  1  0  0  0  0
 13 15  1  0  0  0  0
 13 16  1  0  0  0  0
  8 10  1  0  0  0  0
 11 12  1  0  0  0  0
M  END
>  <MolRegNo>
443899

>  <m>
<

>  <Value>
25

>  <Unit>
%

>  <Type>
Inhibition

>  <Ligand Efficiency>


>  <Binding Efficiency>


>  <Surface Efficiency>


>  <Assay Index>
294022

>  <Assay Category>


>  <Assay Organism>
SARS coronavirus

>  <Target ID>
100499

>  <Target Name>
SARS coronavirus

>  <Target Organism>
SARS coronavirus

>  <Target Description>
Target is a complete organism

>  <Sequence Accession>


>  <Reference>
J. Med. Chem. 50 (17), 4087-4095 (2007)

>  <Pubmed ID>
17663539

>  <DOI>
10.1021/jm070295s

>  <InChI-Key>
LHYHMMRYTDARSZ-XGUBFFRZSA-N

>  <Molecular Formula>
C15H26O

>  <Monoisotopic Mass>
222.198365

>  <Druglikeness>
-4.2367

$$$$
Compound 324
Actelion Java MolfileCreator 1.0

 16 17  0  0  0  0  0  0  0  0999 V2000
    0.0000   -0.0000   -0.0000 O   0  0  0  0  0  0  0  0  0  0  0  0
   -1.2961   -0.7491   -0.0000 C   0  0  0  0  0  0  0  0  0  0  0  0
   -2.6042   -1.4864   -0.0000 C   0  0  0  0  0  0  0  0  0  0  0  0
   -0.0119   -1.4983   -0.0000 C   0  0  0  0  0  0  0  0  0  0  0  0
   -1.3199    0.7729   -0.0000 C   0  0  0  0  0  0  0  0  0  0  0  0
   -2.6280   -2.9847   -0.0000 C   0  0  0  0  0  0  0  0  0  0  0  0
   -3.9241   -0.7254   -0.0000 C   0  0  0  0  0  0  0  0  0  0  0  0
   -0.0238   -2.9847   -0.0000 C   0  0  0  0  0  0  0  0  0  0  0  0
   -3.9360   -3.7220   -0.0000 C   0  0  0  0  0  0  0  0  0  0  0  0
   -1.3437   -3.7339   -0.0000 C   0  0  0  0  0  0  0  0  0  0  0  0
   -5.2322   -1.4626   -0.0000 C   0  0  0  0  0  0  0  0  0  0  0  0
   -5.2440   -2.9609   -0.0000 C   0  0  0  0  0  0  0  0  0  0  0  0
   -1.3675   -5.2203   -0.0000 C   0  0  0  0  0  0  0  0  0  0  0  0
   -6.5521   -3.6982   -0.0000 C   0  0  0  0  0  0  0  0  0  0  0  0
   -0.0832   -5.9575   -0.0000 C   0  0  0  0  0  0  0  0  0  0  0  0
   -2.6755   -5.9456   -0.0000 C   0  0  0  0  0  0  0  0  0  0  0  0
  2  1  1  1  0  0  0
  2  3  1  0  0  0  0
  2  4  1  0  0  0  0
  2  5  1  0  0  0  0
  3  6  1  0  0  0  0
  3  7  1  6  0  0  0
  4  8  1  0  0  0  0
  6  9  1  1  0  0  0
  6 10  1  0  0  0  0
  7 11  1  0  0  0  0
  9 12  2  0  0  0  0
 10 13  1  6  0  0  0
 12 14  1  0  0  0  0
 13 15  1  0  0  0  0
 13 16  1  0  0  0  0
  8 10  1  0  0  0  0
 11 12  1  0  0  0  0
M  END
>  <MolRegNo>
443899

>  <m>
=

>  <Value>
25

>  <Unit>
%

>  <Type>
Inhibition

>  <Ligand Efficiency>


>  <Binding Efficiency>


>  <Surface Efficiency>


>  <Assay Index>
294023

>  <Assay Category>


>  <Assay Organism>
SARS coronavirus

>  <Target ID>
100499

>  <Target Name>
SARS coronavirus

>  <Target Organism>
SARS coronavirus

>  <Target Description>
Target is a complete organism

>  <Sequence Accession>


>  <Reference>
J. Med. Chem. 50 (17), 4087-4095 (2007)

>  <Pubmed ID>
17663539

>  <DOI>
10.1021/jm070295s

>  <InChI-Key>
LHYHMMRYTDARSZ-XGUBFFRZSA-N

>  <Molecular Formula>
C15H26O

>  <Monoisotopic Mass>
222.198365

>  <Druglikeness>
-4.2367

$$$$
Compound 325
Actelion Java MolfileCreator 1.0

 16 17  0  0  0  0  0  0  0  0999 V2000
    0.0000   -0.0000   -0.0000 O   0  0  0  0  0  0  0  0  0  0  0  0
   -1.2961   -0.7491   -0.0000 C   0  0  0  0  0  0  0  0  0  0  0  0
   -2.6042   -1.4864   -0.0000 C   0  0  0  0  0  0  0  0  0  0  0  0
   -0.0119   -1.4983   -0.0000 C   0  0  0  0  0  0  0  0  0  0  0  0
   -1.3199    0.7729   -0.0000 C   0  0  0  0  0  0  0  0  0  0  0  0
   -2.6280   -2.9847   -0.0000 C   0  0  0  0  0  0  0  0  0  0  0  0
   -3.9241   -0.7254   -0.0000 C   0  0  0  0  0  0  0  0  0  0  0  0
   -0.0238   -2.9847   -0.0000 C   0  0  0  0  0  0  0  0  0  0  0  0
   -3.9360   -3.7220   -0.0000 C   0  0  0  0  0  0  0  0  0  0  0  0
   -1.3437   -3.7339   -0.0000 C   0  0  0  0  0  0  0  0  0  0  0  0
   -5.2322   -1.4626   -0.0000 C   0  0  0  0  0  0  0  0  0  0  0  0
   -5.2440   -2.9609   -0.0000 C   0  0  0  0  0  0  0  0  0  0  0  0
   -1.3675   -5.2203   -0.0000 C   0  0  0  0  0  0  0  0  0  0  0  0
   -6.5521   -3.6982   -0.0000 C   0  0  0  0  0  0  0  0  0  0  0  0
   -0.0832   -5.9575   -0.0000 C   0  0  0  0  0  0  0  0  0  0  0  0
   -2.6755   -5.9456   -0.0000 C   0  0  0  0  0  0  0  0  0  0  0  0
  2  1  1  1  0  0  0
  2  3  1  0  0  0  0
  2  4  1  0  0  0  0
  2  5  1  0  0  0  0
  3  6  1  0  0  0  0
  3  7  1  6  0  0  0
  4  8  1  0  0  0  0
  6  9  1  1  0  0  0
  6 10  1  0  0  0  0
  7 11  1  0  0  0  0
  9 12  2  0  0  0  0
 10 13  1  6  0  0  0
 12 14  1  0  0  0  0
 13 15  1  0  0  0  0
 13 16  1  0  0  0  0
  8 10  1  0  0  0  0
 11 12  1  0  0  0  0
M  END
>  <MolRegNo>
443899

>  <m>
=

>  <Value>
25

>  <Unit>
%

>  <Type>
Inhibition

>  <Ligand Efficiency>


>  <Binding Efficiency>


>  <Surface Efficiency>


>  <Assay Index>
294024

>  <Assay Category>


>  <Assay Organism>
SARS coronavirus

>  <Target ID>
100499

>  <Target Name>
SARS coronavirus

>  <Target Organism>
SARS coronavirus

>  <Target Description>
Target is a complete organism

>  <Sequence Accession>


>  <Reference>
J. Med. Chem. 50 (17), 4087-4095 (2007)

>  <Pubmed ID>
17663539

>  <DOI>
10.1021/jm070295s

>  <InChI-Key>
LHYHMMRYTDARSZ-XGUBFFRZSA-N

>  <Molecular Formula>
C15H26O

>  <Monoisotopic Mass>
222.198365

>  <Druglikeness>
-4.2367

$$$$
Compound 326
Actelion Java MolfileCreator 1.0

 30 33  0  0  0  0  0  0  0  0999 V2000
    0.0000   -0.0000   -0.0000 Cl  0  0  0  0  0  0  0  0  0  0  0  0
    1.3004    0.7636   -0.0000 C   0  0  0  0  0  0  0  0  0  0  0  0
    1.2885    2.2907   -0.0000 C   0  0  0  0  0  0  0  0  0  0  0  0
    2.5889    0.0239   -0.0000 C   0  0  0  0  0  0  0  0  0  0  0  0
    2.5770    3.0542   -0.0000 C   0  0  0  0  0  0  0  0  0  0  0  0
    3.8893    0.7874   -0.0000 C   0  0  0  0  0  0  0  0  0  0  0  0
    2.5531    4.5694   -0.0000 Cl  0  0  0  0  0  0  0  0  0  0  0  0
    3.8774    2.3145   -0.0000 C   0  0  0  0  0  0  0  0  0  0  0  0
    5.1778    0.0477   -0.0000 N   0  0  0  0  0  0  0  0  0  0  0  0
    6.4663    0.8113   -0.0000 C   0  0  0  0  0  0  0  0  0  0  0  0
    6.4544    2.3265   -0.0000 O   0  0  0  0  0  0  0  0  0  0  0  0
    7.7548    0.0716   -0.0000 C   0  0  0  0  0  0  0  0  0  0  0  0
    9.0433    0.8351   -0.0000 S   0  0  0  0  0  0  0  0  0  0  0  0
   10.3318    0.0954   -0.0000 C   0  0  0  0  0  0  0  0  0  0  0  0
   11.6084    0.8709   -0.0000 N   0  0  0  0  0  0  0  0  0  0  0  0
   10.3080   -1.3959   -0.0000 N   0  0  0  0  0  0  0  0  0  0  0  0
   12.8969    0.1432   -0.0000 C   0  0  0  0  0  0  0  0  0  0  0  0
   11.5965   -2.1356   -0.0000 C   0  0  0  0  0  0  0  0  0  0  0  0
   14.1854    0.9186   -0.0000 C   0  0  0  0  0  0  0  0  0  0  0  0
   12.8969   -1.3601   -0.0000 C   0  0  0  0  0  0  0  0  0  0  0  0
   15.5574    0.3221   -0.0000 N   0  0  0  0  0  0  0  0  0  0  0  0
   14.3285    2.4219   -0.0000 C   0  0  0  0  0  0  0  0  0  0  0  0
   16.5476    1.4555   -0.0000 C   0  0  0  0  0  0  0  0  0  0  0  0
   15.7960    2.7559   -0.0000 S   0  0  0  0  0  0  0  0  0  0  0  0
   18.0389    1.3124   -0.0000 C   0  0  0  0  0  0  0  0  0  0  0  0
   18.6355   -0.0477   -0.0000 C   0  0  0  0  0  0  0  0  0  0  0  0
   18.8979    2.5412   -0.0000 C   0  0  0  0  0  0  0  0  0  0  0  0
   20.1268   -0.1909   -0.0000 C   0  0  0  0  0  0  0  0  0  0  0  0
   20.3773    2.4100   -0.0000 C   0  0  0  0  0  0  0  0  0  0  0  0
   20.9977    1.0499   -0.0000 C   0  0  0  0  0  0  0  0  0  0  0  0
  1  2  1  0  0  0  0
  2  3  2  0  0  0  0
  2  4  1  0  0  0  0
  3  5  1  0  0  0  0
  4  6  2  0  0  0  0
  5  7  1  0  0  0  0
  5  8  2  0  0  0  0
  6  9  1  0  0  0  0
  9 10  1  0  0  0  0
 10 11  2  0  0  0  0
 10 12  1  0  0  0  0
 12 13  1  0  0  0  0
 13 14  1  0  0  0  0
 14 15  2  0  0  0  0
 14 16  1  0  0  0  0
 15 17  1  0  0  0  0
 16 18  2  0  0  0  0
 17 19  1  0  0  0  0
 17 20  2  0  0  0  0
 19 21  1  0  0  0  0
 19 22  2  0  0  0  0
 21 23  2  0  0  0  0
 22 24  1  0  0  0  0
 23 25  1  0  0  0  0
 25 26  2  0  0  0  0
 25 27  1  0  0  0  0
 26 28  1  0  0  0  0
 27 29  2  0  0  0  0
 28 30  2  0  0  0  0
  6  8  1  0  0  0  0
 18 20  1  0  0  0  0
 23 24  1  0  0  0  0
 29 30  1  0  0  0  0
M  END
>  <MolRegNo>
348973

>  <m>
=

>  <Value>
3.3113e14

>  <Unit>
nM

>  <Type>
IC50

>  <Ligand Efficiency>


>  <Binding Efficiency>


>  <Surface Efficiency>


>  <Assay Index>
262926

>  <Assay Category>


>  <Assay Organism>
SARS coronavirus

>  <Target ID>
20012

>  <Target Name>
SARS coronavirus 3C-like proteinase

>  <Target Organism>
SARS coronavirus

>  <Target Description>
Target is a single protein chain

>  <Sequence Accession>
P0C6U8

>  <Reference>
J. Med. Chem. 49 (12), 3485-3495 (2006)

>  <Pubmed ID>
16759091

>  <DOI>
10.1021/jm050852f

>  <InChI-Key>
LILOEJREEQFTPM-UHFFFAOYSA-N

>  <Molecular Formula>
C21H14N4OCl2S2

>  <Monoisotopic Mass>
471.998605

>  <Druglikeness>
3.6004

$$$$
Compound 327
Actelion Java MolfileCreator 1.0

 30 33  0  0  0  0  0  0  0  0999 V2000
    0.0000   -0.0000   -0.0000 Cl  0  0  0  0  0  0  0  0  0  0  0  0
    1.3004    0.7636   -0.0000 C   0  0  0  0  0  0  0  0  0  0  0  0
    1.2885    2.2907   -0.0000 C   0  0  0  0  0  0  0  0  0  0  0  0
    2.5889    0.0239   -0.0000 C   0  0  0  0  0  0  0  0  0  0  0  0
    2.5770    3.0542   -0.0000 C   0  0  0  0  0  0  0  0  0  0  0  0
    3.8893    0.7874   -0.0000 C   0  0  0  0  0  0  0  0  0  0  0  0
    2.5531    4.5694   -0.0000 Cl  0  0  0  0  0  0  0  0  0  0  0  0
    3.8774    2.3145   -0.0000 C   0  0  0  0  0  0  0  0  0  0  0  0
    5.1778    0.0477   -0.0000 N   0  0  0  0  0  0  0  0  0  0  0  0
    6.4663    0.8113   -0.0000 C   0  0  0  0  0  0  0  0  0  0  0  0
    6.4544    2.3265   -0.0000 O   0  0  0  0  0  0  0  0  0  0  0  0
    7.7548    0.0716   -0.0000 C   0  0  0  0  0  0  0  0  0  0  0  0
    9.0433    0.8351   -0.0000 S   0  0  0  0  0  0  0  0  0  0  0  0
   10.3318    0.0954   -0.0000 C   0  0  0  0  0  0  0  0  0  0  0  0
   11.6084    0.8709   -0.0000 N   0  0  0  0  0  0  0  0  0  0  0  0
   10.3080   -1.3959   -0.0000 N   0  0  0  0  0  0  0  0  0  0  0  0
   12.8969    0.1432   -0.0000 C   0  0  0  0  0  0  0  0  0  0  0  0
   11.5965   -2.1356   -0.0000 C   0  0  0  0  0  0  0  0  0  0  0  0
   14.1854    0.9186   -0.0000 C   0  0  0  0  0  0  0  0  0  0  0  0
   12.8969   -1.3601   -0.0000 C   0  0  0  0  0  0  0  0  0  0  0  0
   15.5574    0.3221   -0.0000 N   0  0  0  0  0  0  0  0  0  0  0  0
   14.3285    2.4219   -0.0000 C   0  0  0  0  0  0  0  0  0  0  0  0
   16.5476    1.4555   -0.0000 C   0  0  0  0  0  0  0  0  0  0  0  0
   15.7960    2.7559   -0.0000 S   0  0  0  0  0  0  0  0  0  0  0  0
   18.0389    1.3124   -0.0000 C   0  0  0  0  0  0  0  0  0  0  0  0
   18.6355   -0.0477   -0.0000 C   0  0  0  0  0  0  0  0  0  0  0  0
   18.8979    2.5412   -0.0000 C   0  0  0  0  0  0  0  0  0  0  0  0
   20.1268   -0.1909   -0.0000 C   0  0  0  0  0  0  0  0  0  0  0  0
   20.3773    2.4100   -0.0000 C   0  0  0  0  0  0  0  0  0  0  0  0
   20.9977    1.0499   -0.0000 C   0  0  0  0  0  0  0  0  0  0  0  0
  1  2  1  0  0  0  0
  2  3  2  0  0  0  0
  2  4  1  0  0  0  0
  3  5  1  0  0  0  0
  4  6  2  0  0  0  0
  5  7  1  0  0  0  0
  5  8  2  0  0  0  0
  6  9  1  0  0  0  0
  9 10  1  0  0  0  0
 10 11  2  0  0  0  0
 10 12  1  0  0  0  0
 12 13  1  0  0  0  0
 13 14  1  0  0  0  0
 14 15  2  0  0  0  0
 14 16  1  0  0  0  0
 15 17  1  0  0  0  0
 16 18  2  0  0  0  0
 17 19  1  0  0  0  0
 17 20  2  0  0  0  0
 19 21  1  0  0  0  0
 19 22  2  0  0  0  0
 21 23  2  0  0  0  0
 22 24  1  0  0  0  0
 23 25  1  0  0  0  0
 25 26  2  0  0  0  0
 25 27  1  0  0  0  0
 26 28  1  0  0  0  0
 27 29  2  0  0  0  0
 28 30  2  0  0  0  0
  6  8  1  0  0  0  0
 18 20  1  0  0  0  0
 23 24  1  0  0  0  0
 29 30  1  0  0  0  0
M  END
>  <MolRegNo>
348973

>  <m>
=

>  <Value>
3000

>  <Unit>
nM

>  <Type>
IC50

>  <Ligand Efficiency>
0.25

>  <Binding Efficiency>
11.67

>  <Surface Efficiency>
8.15

>  <Assay Index>
262926

>  <Assay Category>


>  <Assay Organism>
SARS coronavirus

>  <Target ID>
20012

>  <Target Name>
SARS coronavirus 3C-like proteinase

>  <Target Organism>
SARS coronavirus

>  <Target Description>
Target is a single protein chain

>  <Sequence Accession>
P0C6U8

>  <Reference>
J. Med. Chem. 49 (12), 3485-3495 (2006)

>  <Pubmed ID>
16759091

>  <DOI>
10.1021/jm050852f

>  <InChI-Key>
LILOEJREEQFTPM-UHFFFAOYSA-N

>  <Molecular Formula>
C21H14N4OCl2S2

>  <Monoisotopic Mass>
471.998605

>  <Druglikeness>
3.6004

$$$$
Compound 328
Actelion Java MolfileCreator 1.0

 19 21  0  0  0  0  0  0  0  0999 V2000
    0.0000   -0.0000   -0.0000 Cl  0  0  0  0  0  0  0  0  0  0  0  0
   -1.3036   -0.7347   -0.0000 C   0  0  0  0  0  0  0  0  0  0  0  0
   -1.3154   -2.2279   -0.0000 C   0  0  0  0  0  0  0  0  0  0  0  0
   -2.6071    0.0237   -0.0000 C   0  0  0  0  0  0  0  0  0  0  0  0
   -2.6308   -2.9626   -0.0000 N   0  0  0  0  0  0  0  0  0  0  0  0
   -3.9107   -0.7110   -0.0000 C   0  0  0  0  0  0  0  0  0  0  0  0
   -3.9344   -2.2042   -0.0000 C   0  0  0  0  0  0  0  0  0  0  0  0
   -5.2142    0.0474   -0.0000 O   0  0  0  0  0  0  0  0  0  0  0  0
   -6.5178   -0.6873   -0.0000 C   0  0  0  0  0  0  0  0  0  0  0  0
   -6.5297   -2.1687   -0.0000 O   0  0  0  0  0  0  0  0  0  0  0  0
   -7.8214    0.0711   -0.0000 C   0  0  0  0  0  0  0  0  0  0  0  0
   -9.1960   -0.5214   -0.0000 N   0  0  0  0  0  0  0  0  0  0  0  0
   -7.9873    1.5643   -0.0000 C   0  0  0  0  0  0  0  0  0  0  0  0
  -10.2033    0.6044   -0.0000 C   0  0  0  0  0  0  0  0  0  0  0  0
   -9.4568    1.8842   -0.0000 C   0  0  0  0  0  0  0  0  0  0  0  0
  -11.7084    0.6162   -0.0000 C   0  0  0  0  0  0  0  0  0  0  0  0
  -10.2152    3.1878   -0.0000 C   0  0  0  0  0  0  0  0  0  0  0  0
  -12.4668    1.9198   -0.0000 C   0  0  0  0  0  0  0  0  0  0  0  0
  -11.7202    3.1997   -0.0000 C   0  0  0  0  0  0  0  0  0  0  0  0
  1  2  1  0  0  0  0
  2  3  2  0  0  0  0
  2  4  1  0  0  0  0
  3  5  1  0  0  0  0
  4  6  2  0  0  0  0
  5  7  2  0  0  0  0
  6  8  1  0  0  0  0
  8  9  1  0  0  0  0
  9 10  2  0  0  0  0
  9 11  1  0  0  0  0
 11 12  1  0  0  0  0
 11 13  2  0  0  0  0
 12 14  1  0  0  0  0
 13 15  1  0  0  0  0
 14 16  1  0  0  0  0
 15 17  1  0  0  0  0
 16 18  2  0  0  0  0
 17 19  2  0  0  0  0
  6  7  1  0  0  0  0
 14 15  2  0  0  0  0
 18 19  1  0  0  0  0
M  END
>  <MolRegNo>
371893

>  <m>
=

>  <Value>
65

>  <Unit>
nM

>  <Type>
IC50

>  <Ligand Efficiency>
0.52

>  <Binding Efficiency>
26.36

>  <Surface Efficiency>
13.07

>  <Assay Index>
278391

>  <Assay Category>


>  <Assay Organism>
SARS coronavirus

>  <Target ID>
20012

>  <Target Name>
SARS coronavirus 3C-like proteinase

>  <Target Organism>
SARS coronavirus

>  <Target Description>
Target is a single protein chain

>  <Sequence Accession>
P0C6U8

>  <Reference>
J. Med. Chem. 50 (8), 1850-1864 (2007)

>  <Pubmed ID>
17381079

>  <DOI>
10.1021/jm061425k

>  <InChI-Key>
LJTINUKMKJKLBT-UHFFFAOYSA-N

>  <Molecular Formula>
C14H9N2O2Cl

>  <Monoisotopic Mass>
272.035255

>  <Druglikeness>
0.943

$$$$
Compound 329
Actelion Java MolfileCreator 1.0

 19 21  0  0  0  0  0  0  0  0999 V2000
    0.0000   -0.0000   -0.0000 Cl  0  0  0  0  0  0  0  0  0  0  0  0
   -1.3036   -0.7347   -0.0000 C   0  0  0  0  0  0  0  0  0  0  0  0
   -1.3154   -2.2279   -0.0000 C   0  0  0  0  0  0  0  0  0  0  0  0
   -2.6071    0.0237   -0.0000 C   0  0  0  0  0  0  0  0  0  0  0  0
   -2.6308   -2.9626   -0.0000 N   0  0  0  0  0  0  0  0  0  0  0  0
   -3.9107   -0.7110   -0.0000 C   0  0  0  0  0  0  0  0  0  0  0  0
   -3.9344   -2.2042   -0.0000 C   0  0  0  0  0  0  0  0  0  0  0  0
   -5.2142    0.0474   -0.0000 O   0  0  0  0  0  0  0  0  0  0  0  0
   -6.5178   -0.6873   -0.0000 C   0  0  0  0  0  0  0  0  0  0  0  0
   -6.5297   -2.1687   -0.0000 O   0  0  0  0  0  0  0  0  0  0  0  0
   -7.8214    0.0711   -0.0000 C   0  0  0  0  0  0  0  0  0  0  0  0
   -9.1960   -0.5214   -0.0000 N   0  0  0  0  0  0  0  0  0  0  0  0
   -7.9873    1.5643   -0.0000 C   0  0  0  0  0  0  0  0  0  0  0  0
  -10.2033    0.6044   -0.0000 C   0  0  0  0  0  0  0  0  0  0  0  0
   -9.4568    1.8842   -0.0000 C   0  0  0  0  0  0  0  0  0  0  0  0
  -11.7084    0.6162   -0.0000 C   0  0  0  0  0  0  0  0  0  0  0  0
  -10.2152    3.1878   -0.0000 C   0  0  0  0  0  0  0  0  0  0  0  0
  -12.4668    1.9198   -0.0000 C   0  0  0  0  0  0  0  0  0  0  0  0
  -11.7202    3.1997   -0.0000 C   0  0  0  0  0  0  0  0  0  0  0  0
  1  2  1  0  0  0  0
  2  3  2  0  0  0  0
  2  4  1  0  0  0  0
  3  5  1  0  0  0  0
  4  6  2  0  0  0  0
  5  7  2  0  0  0  0
  6  8  1  0  0  0  0
  8  9  1  0  0  0  0
  9 10  2  0  0  0  0
  9 11  1  0  0  0  0
 11 12  1  0  0  0  0
 11 13  2  0  0  0  0
 12 14  1  0  0  0  0
 13 15  1  0  0  0  0
 14 16  1  0  0  0  0
 15 17  1  0  0  0  0
 16 18  2  0  0  0  0
 17 19  2  0  0  0  0
  6  7  1  0  0  0  0
 14 15  2  0  0  0  0
 18 19  1  0  0  0  0
M  END
>  <MolRegNo>
371893

>  <m>
=

>  <Value>
99

>  <Unit>
%

>  <Type>
Inhibition

>  <Ligand Efficiency>


>  <Binding Efficiency>


>  <Surface Efficiency>


>  <Assay Index>
278392

>  <Assay Category>


>  <Assay Organism>
SARS coronavirus

>  <Target ID>
20012

>  <Target Name>
SARS coronavirus 3C-like proteinase

>  <Target Organism>
SARS coronavirus

>  <Target Description>
Target is a single protein chain

>  <Sequence Accession>
P0C6U8

>  <Reference>
J. Med. Chem. 50 (8), 1850-1864 (2007)

>  <Pubmed ID>
17381079

>  <DOI>
10.1021/jm061425k

>  <InChI-Key>
LJTINUKMKJKLBT-UHFFFAOYSA-N

>  <Molecular Formula>
C14H9N2O2Cl

>  <Monoisotopic Mass>
272.035255

>  <Druglikeness>
0.943

$$$$
Compound 330
Actelion Java MolfileCreator 1.0

 22 24  0  0  0  0  0  0  0  0999 V2000
    0.0000   -0.0000   -0.0000 Cl  0  0  0  0  0  0  0  0  0  0  0  0
    1.2835   -0.7368   -0.0000 C   0  0  0  0  0  0  0  0  0  0  0  0
    2.5669    0.0238   -0.0000 C   0  0  0  0  0  0  0  0  0  0  0  0
    1.2716   -2.2223   -0.0000 C   0  0  0  0  0  0  0  0  0  0  0  0
    3.8504   -0.7130   -0.0000 C   0  0  0  0  0  0  0  0  0  0  0  0
    2.5551    1.5330   -0.0000 C   0  0  0  0  0  0  0  0  0  0  0  0
    2.5551   -2.9591   -0.0000 C   0  0  0  0  0  0  0  0  0  0  0  0
    5.1339    0.0475   -0.0000 Cl  0  0  0  0  0  0  0  0  0  0  0  0
    3.8385   -2.2104   -0.0000 C   0  0  0  0  0  0  0  0  0  0  0  0
    3.7435    2.4243   -0.0000 S   0  0  0  0  0  0  0  0  0  0  0  0
    1.3191    2.4125   -0.0000 N   0  0  0  0  0  0  0  0  0  0  0  0
    3.2681    3.8623   -0.0000 C   0  0  0  0  0  0  0  0  0  0  0  0
    1.7707    3.8504   -0.0000 C   0  0  0  0  0  0  0  0  0  0  0  0
   -0.2020    2.4243   -0.0000 C   0  0  0  0  0  0  0  0  0  0  0  0
    4.1356    5.0864   -0.0000 C   0  0  0  0  0  0  0  0  0  0  0  0
    0.8794    5.0745   -0.0000 O   0  0  0  0  0  0  0  0  0  0  0  0
   -1.0696    3.6603   -0.0000 C   0  0  0  0  0  0  0  0  0  0  0  0
   -0.4516    5.0269   -0.0000 C   0  0  0  0  0  0  0  0  0  0  0  0
   -2.5669    3.5414   -0.0000 C   0  0  0  0  0  0  0  0  0  0  0  0
   -1.3191    6.2629   -0.0000 N   0  0  0  0  0  0  0  0  0  0  0  0
   -3.4345    4.7774   -0.0000 C   0  0  0  0  0  0  0  0  0  0  0  0
   -2.8284    6.1440   -0.0000 C   0  0  0  0  0  0  0  0  0  0  0  0
  1  2  1  0  0  0  0
  2  3  2  0  0  0  0
  2  4  1  0  0  0  0
  3  5  1  0  0  0  0
  3  6  1  0  0  0  0
  4  7  2  0  0  0  0
  5  8  1  0  0  0  0
  5  9  2  0  0  0  0
  6 10  1  0  0  0  0
  6 11  1  0  0  0  0
 10 12  1  0  0  0  0
 11 13  1  0  0  0  0
 11 14  1  0  0  0  0
 12 15  1  0  0  0  0
 13 16  2  0  0  0  0
 14 17  1  0  0  0  0
 17 18  2  0  0  0  0
 17 19  1  0  0  0  0
 18 20  1  0  0  0  0
 19 21  2  0  0  0  0
 20 22  2  0  0  0  0
  7  9  1  0  0  0  0
 12 13  1  0  0  0  0
 21 22  1  0  0  0  0
M  END
>  <MolRegNo>
453068

>  <m>
<=

>  <Value>
50

>  <Unit>
%

>  <Type>
Inhibition

>  <Ligand Efficiency>


>  <Binding Efficiency>


>  <Surface Efficiency>


>  <Assay Index>
406904

>  <Assay Category>


>  <Assay Organism>
SARS coronavirus

>  <Target ID>
101075

>  <Target Name>
Replicase polyprotein 1ab

>  <Target Organism>
SARS coronavirus

>  <Target Description>
Target is a single protein chain

>  <Sequence Accession>
P0C6X7

>  <Reference>
Bioorg. Med. Chem. Lett. 18 (23), 6110-6114 (2008)

>  <Pubmed ID>
18947995

>  <DOI>
10.1016/j.bmcl.2008.10.023

>  <InChI-Key>
LKXQTLAWFJJCNQ-UHFFFAOYSA-N

>  <Molecular Formula>
C16H14N2OCl2S

>  <Monoisotopic Mass>
352.020387

>  <Druglikeness>
4.943

$$$$
Compound 331
Actelion Java MolfileCreator 1.0

 23 24  0  0  1  0  0  0  0  0999 V2000
    0.0000   -0.0000   -0.0000 O   0  0  0  0  0  0  0  0  0  0  0  0
   -0.0119    1.5177   -0.0000 C   0  0  0  0  0  0  0  0  0  0  0  0
   -1.3280    2.2766   -0.0000 O   0  0  0  0  0  0  0  0  0  0  0  0
    1.2806    2.2766   -0.0000 N   0  0  0  0  0  0  0  0  0  0  0  0
   -1.3399    3.7943   -0.0000 C   0  0  0  0  0  0  0  0  0  0  0  0
    2.5730    1.5414   -0.0000 C   0  0  0  0  0  0  0  0  0  0  0  0
   -1.3636    5.3121   -0.0000 C   0  0  0  0  0  0  0  0  0  0  0  0
    0.1541    3.8062   -0.0000 C   0  0  0  0  0  0  0  0  0  0  0  0
   -2.8576    3.7943   -0.0000 C   0  0  0  0  0  0  0  0  0  0  0  0
    3.8655    2.3003   -0.0000 C   0  0  0  0  0  0  0  0  0  0  0  0
    2.5612    0.0474   -0.0000 C   0  0  0  0  0  0  0  0  0  0  0  0
    4.6006    3.6165   -0.0000 O   0  0  0  0  0  0  0  0  0  0  0  0
    5.3595    2.3122   -0.0000 C   0  0  0  0  0  0  0  0  0  0  0  0
    3.8536   -0.6877   -0.0000 C   0  0  0  0  0  0  0  0  0  0  0  0
    6.6519    1.5770   -0.0000 C   0  0  0  0  0  0  0  0  0  0  0  0
    3.8418   -2.1817   -0.0000 C   0  0  0  0  0  0  0  0  0  0  0  0
    5.1342    0.0711   -0.0000 C   0  0  0  0  0  0  0  0  0  0  0  0
    7.9444    2.3359   -0.0000 C   0  0  0  0  0  0  0  0  0  0  0  0
    5.1342   -2.9169   -0.0000 C   0  0  0  0  0  0  0  0  0  0  0  0
    6.4266   -0.6640   -0.0000 C   0  0  0  0  0  0  0  0  0  0  0  0
    9.2368    1.6007   -0.0000 C   0  0  0  0  0  0  0  0  0  0  0  0
    7.9325    3.8536   -0.0000 C   0  0  0  0  0  0  0  0  0  0  0  0
    6.4266   -2.1580   -0.0000 C   0  0  0  0  0  0  0  0  0  0  0  0
  1  2  2  0  0  0  0
  2  3  1  0  0  0  0
  2  4  1  0  0  0  0
  3  5  1  0  0  0  0
  6  4  1  6  0  0  0
  5  7  1  0  0  0  0
  5  8  1  0  0  0  0
  5  9  1  0  0  0  0
  6 10  1  0  0  0  0
  6 11  1  0  0  0  0
 10 12  1  1  0  0  0
 10 13  1  0  0  0  0
 11 14  1  0  0  0  0
 13 15  1  1  0  0  0
 14 16  2  0  0  0  0
 14 17  1  0  0  0  0
 15 18  1  0  0  0  0
 16 19  1  0  0  0  0
 17 20  2  0  0  0  0
 18 21  1  0  0  0  0
 18 22  1  0  0  0  0
 19 23  2  0  0  0  0
 12 13  1  0  0  0  0
 20 23  1  0  0  0  0
M  END
>  <MolRegNo>
333827

>  <m>
<

>  <Value>
10

>  <Unit>
%

>  <Type>
Inhibition

>  <Ligand Efficiency>


>  <Binding Efficiency>


>  <Surface Efficiency>


>  <Assay Index>
254534

>  <Assay Category>


>  <Assay Organism>
SARS coronavirus

>  <Target ID>
20012

>  <Target Name>
SARS coronavirus 3C-like proteinase

>  <Target Organism>
SARS coronavirus

>  <Target Description>
Target is a single protein chain

>  <Sequence Accession>
P0C6U8

>  <Reference>
Bioorg. Med. Chem. Lett. 15 (24), 5365-5369 (2005)

>  <Pubmed ID>
16216498

>  <DOI>
10.1016/j.bmcl.2005.09.012

>  <InChI-Key>
LLANLDFKSKJQFS-GVDBMIGSSA-N

>  <Molecular Formula>
C19H29NO3

>  <Monoisotopic Mass>
319.214744

>  <Druglikeness>
-54.052

$$$$
Compound 332
Actelion Java MolfileCreator 1.0

 58 64  0  0  0  0  0  0  0  0999 V2000
    0.0000   -0.0000   -0.0000 O   0  0  0  0  0  0  0  0  0  0  0  0
    1.2818   -0.7358   -0.0000 C   0  0  0  0  0  0  0  0  0  0  0  0
    2.5754    0.0119   -0.0000 C   0  0  0  0  0  0  0  0  0  0  0  0
    1.2699   -2.2194   -0.0000 C   0  0  0  0  0  0  0  0  0  0  0  0
    3.8572   -0.7358   -0.0000 C   0  0  0  0  0  0  0  0  0  0  0  0
    2.5517   -2.9671   -0.0000 C   0  0  0  0  0  0  0  0  0  0  0  0
   -0.0356   -2.9671   -0.0000 C   0  0  0  0  0  0  0  0  0  0  0  0
    3.8216   -2.2194   -0.0000 C   0  0  0  0  0  0  0  0  0  0  0  0
    5.1389    0.0119   -0.0000 C   0  0  0  0  0  0  0  0  0  0  0  0
    2.5517   -4.4506   -0.0000 C   0  0  0  0  0  0  0  0  0  0  0  0
    2.5279   -1.4479   -0.0000 C   0  0  0  0  0  0  0  0  0  0  0  0
   -0.0475   -4.4624   -0.0000 C   0  0  0  0  0  0  0  0  0  0  0  0
   -1.3411   -2.1956   -0.0000 C   0  0  0  0  0  0  0  0  0  0  0  0
   -0.0593   -1.4479   -0.0000 C   0  0  0  0  0  0  0  0  0  0  0  0
    5.0915   -2.9671   -0.0000 C   0  0  0  0  0  0  0  0  0  0  0  0
    3.7978   -3.7029   -0.0000 C   0  0  0  0  0  0  0  0  0  0  0  0
    6.4088   -0.7358   -0.0000 C   0  0  0  0  0  0  0  0  0  0  0  0
    5.1508    1.5073   -0.0000 C   0  0  0  0  0  0  0  0  0  0  0  0
    1.2343   -5.1864   -0.0000 C   0  0  0  0  0  0  0  0  0  0  0  0
   -1.3648   -5.1864   -0.0000 C   0  0  0  0  0  0  0  0  0  0  0  0
   -2.6466   -2.9433   -0.0000 C   0  0  0  0  0  0  0  0  0  0  0  0
    6.3851   -2.2312   -0.0000 C   0  0  0  0  0  0  0  0  0  0  0  0
    7.6906   -0.0119   -0.0000 C   0  0  0  0  0  0  0  0  0  0  0  0
    6.3851    0.7833   -0.0000 C   0  0  0  0  0  0  0  0  0  0  0  0
    6.4444    2.2431   -0.0000 C   0  0  0  0  0  0  0  0  0  0  0  0
   -2.6703   -4.4387   -0.0000 C   0  0  0  0  0  0  0  0  0  0  0  0
   -0.6290   -6.4682   -0.0000 C   0  0  0  0  0  0  0  0  0  0  0  0
   -2.1244   -6.4682   -0.0000 C   0  0  0  0  0  0  0  0  0  0  0  0
    7.7143    1.4954   -0.0000 C   0  0  0  0  0  0  0  0  0  0  0  0
    7.1803    3.5605   -0.0000 C   0  0  0  0  0  0  0  0  0  0  0  0
    5.6730    3.5605   -0.0000 C   0  0  0  0  0  0  0  0  0  0  0  0
   -3.9759   -5.1745   -0.0000 O   0  0  0  0  0  0  0  0  0  0  0  0
    6.4207    4.8660   -0.0000 O   0  0  0  0  0  0  0  0  0  0  0  0
    8.6757    3.5723   -0.0000 O   0  0  0  0  0  0  0  0  0  0  0  0
   -5.2932   -4.4150   -0.0000 C   0  0  0  0  0  0  0  0  0  0  0  0
   -5.3051   -2.8958   -0.0000 O   0  0  0  0  0  0  0  0  0  0  0  0
   -6.6106   -5.1508   -0.0000 C   0  0  0  0  0  0  0  0  0  0  0  0
   -6.6106   -2.1244   -0.0000 C   0  0  0  0  0  0  0  0  0  0  0  0
   -6.6225   -6.6462   -0.0000 O   0  0  0  0  0  0  0  0  0  0  0  0
   -7.9280   -4.3794   -0.0000 C   0  0  0  0  0  0  0  0  0  0  0  0
   -6.6225   -0.6053   -0.0000 C   0  0  0  0  0  0  0  0  0  0  0  0
   -7.9280   -2.8602   -0.0000 C   0  0  0  0  0  0  0  0  0  0  0  0
   -7.9398   -7.3820   -0.0000 C   0  0  0  0  0  0  0  0  0  0  0  0
   -9.2453   -5.1152   -0.0000 O   0  0  0  0  0  0  0  0  0  0  0  0
   -7.9280    0.1543   -0.0000 O   0  0  0  0  0  0  0  0  0  0  0  0
   -5.3288    0.1543   -0.0000 O   0  0  0  0  0  0  0  0  0  0  0  0
   -9.2335   -2.0888   -0.0000 O   0  0  0  0  0  0  0  0  0  0  0  0
   -9.2572   -6.6225   -0.0000 O   0  0  0  0  0  0  0  0  0  0  0  0
   -7.9517   -8.8774   -0.0000 C   0  0  0  0  0  0  0  0  0  0  0  0
  -10.5627   -7.3583   -0.0000 C   0  0  0  0  0  0  0  0  0  0  0  0
   -6.6699   -9.6133   -0.0000 O   0  0  0  0  0  0  0  0  0  0  0  0
   -9.2691   -9.6014   -0.0000 C   0  0  0  0  0  0  0  0  0  0  0  0
  -11.8682   -6.5869   -0.0000 C   0  0  0  0  0  0  0  0  0  0  0  0
  -10.5864   -8.8537   -0.0000 C   0  0  0  0  0  0  0  0  0  0  0  0
   -9.2928  -11.0968   -0.0000 O   0  0  0  0  0  0  0  0  0  0  0  0
  -13.1856   -7.3227   -0.0000 O   0  0  0  0  0  0  0  0  0  0  0  0
  -11.8682   -5.0677   -0.0000 O   0  0  0  0  0  0  0  0  0  0  0  0
  -11.9038   -9.5776   -0.0000 O   0  0  0  0  0  0  0  0  0  0  0  0
  1  2  2  0  0  0  0
  2  3  1  0  0  0  0
  4  2  1  1  0  0  0
  3  5  2  0  0  0  0
  4  6  1  0  0  0  0
  4  7  1  0  0  0  0
  5  8  1  0  0  0  0
  5  9  1  0  0  0  0
  6 10  1  0  0  0  0
  6 11  1  1  0  0  0
  7 12  1  0  0  0  0
  7 13  1  0  0  0  0
  7 14  1  1  0  0  0
  8 15  1  0  0  0  0
  8 16  1  6  0  0  0
  9 17  1  0  0  0  0
  9 18  1  6  0  0  0
 10 19  1  0  0  0  0
 12 20  1  0  0  0  0
 13 21  1  0  0  0  0
 15 22  1  0  0  0  0
 17 23  1  0  0  0  0
 17 24  1  1  0  0  0
 18 25  1  0  0  0  0
 20 26  1  0  0  0  0
 20 27  1  0  0  0  0
 20 28  1  0  0  0  0
 23 29  1  0  0  0  0
 25 30  1  0  0  0  0
 25 31  1  6  0  0  0
 26 32  1  1  0  0  0
 30 33  2  0  0  0  0
 30 34  1  0  0  0  0
 35 32  1  6  0  0  0
 35 36  1  0  0  0  0
 35 37  1  0  0  0  0
 36 38  1  0  0  0  0
 37 39  1  6  0  0  0
 37 40  1  0  0  0  0
 38 41  1  1  0  0  0
 38 42  1  0  0  0  0
 43 39  1  1  0  0  0
 40 44  1  1  0  0  0
 41 45  2  0  0  0  0
 41 46  1  0  0  0  0
 42 47  1  6  0  0  0
 43 48  1  0  0  0  0
 43 49  1  0  0  0  0
 48 50  1  0  0  0  0
 49 51  1  6  0  0  0
 49 52  1  0  0  0  0
 50 53  1  1  0  0  0
 50 54  1  0  0  0  0
 52 55  1  1  0  0  0
 53 56  2  0  0  0  0
 53 57  1  0  0  0  0
 54 58  1  6  0  0  0
  6  8  1  0  0  0  0
 12 19  1  1  0  0  0
 17 22  1  0  0  0  0
 21 26  1  0  0  0  0
 25 29  1  0  0  0  0
 40 42  1  0  0  0  0
 52 54  1  0  0  0  0
M  END
>  <MolRegNo>
349663

>  <m>


>  <Value>
0

>  <Unit>


>  <Type>
Activity

>  <Ligand Efficiency>


>  <Binding Efficiency>


>  <Surface Efficiency>


>  <Assay Index>
294023

>  <Assay Category>


>  <Assay Organism>
SARS coronavirus

>  <Target ID>
100499

>  <Target Name>
SARS coronavirus

>  <Target Organism>
SARS coronavirus

>  <Target Description>
Target is a complete organism

>  <Sequence Accession>


>  <Reference>
J. Med. Chem. 50 (17), 4087-4095 (2007)

>  <Pubmed ID>
17663539

>  <DOI>
10.1021/jm070295s

>  <InChI-Key>
LPLVUJXQOOQHMX-PRWQXZRYSA-N

>  <Molecular Formula>
C42H62O16

>  <Monoisotopic Mass>
822.403790

>  <Druglikeness>
-4.2912

$$$$
Compound 333
Actelion Java MolfileCreator 1.0

 58 64  0  0  0  0  0  0  0  0999 V2000
    0.0000   -0.0000   -0.0000 O   0  0  0  0  0  0  0  0  0  0  0  0
    1.2818   -0.7358   -0.0000 C   0  0  0  0  0  0  0  0  0  0  0  0
    2.5754    0.0119   -0.0000 C   0  0  0  0  0  0  0  0  0  0  0  0
    1.2699   -2.2194   -0.0000 C   0  0  0  0  0  0  0  0  0  0  0  0
    3.8572   -0.7358   -0.0000 C   0  0  0  0  0  0  0  0  0  0  0  0
    2.5517   -2.9671   -0.0000 C   0  0  0  0  0  0  0  0  0  0  0  0
   -0.0356   -2.9671   -0.0000 C   0  0  0  0  0  0  0  0  0  0  0  0
    3.8216   -2.2194   -0.0000 C   0  0  0  0  0  0  0  0  0  0  0  0
    5.1389    0.0119   -0.0000 C   0  0  0  0  0  0  0  0  0  0  0  0
    2.5517   -4.4506   -0.0000 C   0  0  0  0  0  0  0  0  0  0  0  0
    2.5279   -1.4479   -0.0000 C   0  0  0  0  0  0  0  0  0  0  0  0
   -0.0475   -4.4624   -0.0000 C   0  0  0  0  0  0  0  0  0  0  0  0
   -1.3411   -2.1956   -0.0000 C   0  0  0  0  0  0  0  0  0  0  0  0
   -0.0593   -1.4479   -0.0000 C   0  0  0  0  0  0  0  0  0  0  0  0
    5.0915   -2.9671   -0.0000 C   0  0  0  0  0  0  0  0  0  0  0  0
    3.7978   -3.7029   -0.0000 C   0  0  0  0  0  0  0  0  0  0  0  0
    6.4088   -0.7358   -0.0000 C   0  0  0  0  0  0  0  0  0  0  0  0
    5.1508    1.5073   -0.0000 C   0  0  0  0  0  0  0  0  0  0  0  0
    1.2343   -5.1864   -0.0000 C   0  0  0  0  0  0  0  0  0  0  0  0
   -1.3648   -5.1864   -0.0000 C   0  0  0  0  0  0  0  0  0  0  0  0
   -2.6466   -2.9433   -0.0000 C   0  0  0  0  0  0  0  0  0  0  0  0
    6.3851   -2.2312   -0.0000 C   0  0  0  0  0  0  0  0  0  0  0  0
    7.6906   -0.0119   -0.0000 C   0  0  0  0  0  0  0  0  0  0  0  0
    6.3851    0.7833   -0.0000 C   0  0  0  0  0  0  0  0  0  0  0  0
    6.4444    2.2431   -0.0000 C   0  0  0  0  0  0  0  0  0  0  0  0
   -2.6703   -4.4387   -0.0000 C   0  0  0  0  0  0  0  0  0  0  0  0
   -0.6290   -6.4682   -0.0000 C   0  0  0  0  0  0  0  0  0  0  0  0
   -2.1244   -6.4682   -0.0000 C   0  0  0  0  0  0  0  0  0  0  0  0
    7.7143    1.4954   -0.0000 C   0  0  0  0  0  0  0  0  0  0  0  0
    7.1803    3.5605   -0.0000 C   0  0  0  0  0  0  0  0  0  0  0  0
    5.6730    3.5605   -0.0000 C   0  0  0  0  0  0  0  0  0  0  0  0
   -3.9759   -5.1745   -0.0000 O   0  0  0  0  0  0  0  0  0  0  0  0
    6.4207    4.8660   -0.0000 O   0  0  0  0  0  0  0  0  0  0  0  0
    8.6757    3.5723   -0.0000 O   0  0  0  0  0  0  0  0  0  0  0  0
   -5.2932   -4.4150   -0.0000 C   0  0  0  0  0  0  0  0  0  0  0  0
   -5.3051   -2.8958   -0.0000 O   0  0  0  0  0  0  0  0  0  0  0  0
   -6.6106   -5.1508   -0.0000 C   0  0  0  0  0  0  0  0  0  0  0  0
   -6.6106   -2.1244   -0.0000 C   0  0  0  0  0  0  0  0  0  0  0  0
   -6.6225   -6.6462   -0.0000 O   0  0  0  0  0  0  0  0  0  0  0  0
   -7.9280   -4.3794   -0.0000 C   0  0  0  0  0  0  0  0  0  0  0  0
   -6.6225   -0.6053   -0.0000 C   0  0  0  0  0  0  0  0  0  0  0  0
   -7.9280   -2.8602   -0.0000 C   0  0  0  0  0  0  0  0  0  0  0  0
   -7.9398   -7.3820   -0.0000 C   0  0  0  0  0  0  0  0  0  0  0  0
   -9.2453   -5.1152   -0.0000 O   0  0  0  0  0  0  0  0  0  0  0  0
   -7.9280    0.1543   -0.0000 O   0  0  0  0  0  0  0  0  0  0  0  0
   -5.3288    0.1543   -0.0000 O   0  0  0  0  0  0  0  0  0  0  0  0
   -9.2335   -2.0888   -0.0000 O   0  0  0  0  0  0  0  0  0  0  0  0
   -9.2572   -6.6225   -0.0000 O   0  0  0  0  0  0  0  0  0  0  0  0
   -7.9517   -8.8774   -0.0000 C   0  0  0  0  0  0  0  0  0  0  0  0
  -10.5627   -7.3583   -0.0000 C   0  0  0  0  0  0  0  0  0  0  0  0
   -6.6699   -9.6133   -0.0000 O   0  0  0  0  0  0  0  0  0  0  0  0
   -9.2691   -9.6014   -0.0000 C   0  0  0  0  0  0  0  0  0  0  0  0
  -11.8682   -6.5869   -0.0000 C   0  0  0  0  0  0  0  0  0  0  0  0
  -10.5864   -8.8537   -0.0000 C   0  0  0  0  0  0  0  0  0  0  0  0
   -9.2928  -11.0968   -0.0000 O   0  0  0  0  0  0  0  0  0  0  0  0
  -13.1856   -7.3227   -0.0000 O   0  0  0  0  0  0  0  0  0  0  0  0
  -11.8682   -5.0677   -0.0000 O   0  0  0  0  0  0  0  0  0  0  0  0
  -11.9038   -9.5776   -0.0000 O   0  0  0  0  0  0  0  0  0  0  0  0
  1  2  2  0  0  0  0
  2  3  1  0  0  0  0
  4  2  1  1  0  0  0
  3  5  2  0  0  0  0
  4  6  1  0  0  0  0
  4  7  1  0  0  0  0
  5  8  1  0  0  0  0
  5  9  1  0  0  0  0
  6 10  1  0  0  0  0
  6 11  1  1  0  0  0
  7 12  1  0  0  0  0
  7 13  1  0  0  0  0
  7 14  1  1  0  0  0
  8 15  1  0  0  0  0
  8 16  1  6  0  0  0
  9 17  1  0  0  0  0
  9 18  1  6  0  0  0
 10 19  1  0  0  0  0
 12 20  1  0  0  0  0
 13 21  1  0  0  0  0
 15 22  1  0  0  0  0
 17 23  1  0  0  0  0
 17 24  1  1  0  0  0
 18 25  1  0  0  0  0
 20 26  1  0  0  0  0
 20 27  1  0  0  0  0
 20 28  1  0  0  0  0
 23 29  1  0  0  0  0
 25 30  1  0  0  0  0
 25 31  1  6  0  0  0
 26 32  1  1  0  0  0
 30 33  2  0  0  0  0
 30 34  1  0  0  0  0
 35 32  1  6  0  0  0
 35 36  1  0  0  0  0
 35 37  1  0  0  0  0
 36 38  1  0  0  0  0
 37 39  1  6  0  0  0
 37 40  1  0  0  0  0
 38 41  1  1  0  0  0
 38 42  1  0  0  0  0
 43 39  1  1  0  0  0
 40 44  1  1  0  0  0
 41 45  2  0  0  0  0
 41 46  1  0  0  0  0
 42 47  1  6  0  0  0
 43 48  1  0  0  0  0
 43 49  1  0  0  0  0
 48 50  1  0  0  0  0
 49 51  1  6  0  0  0
 49 52  1  0  0  0  0
 50 53  1  1  0  0  0
 50 54  1  0  0  0  0
 52 55  1  1  0  0  0
 53 56  2  0  0  0  0
 53 57  1  0  0  0  0
 54 58  1  6  0  0  0
  6  8  1  0  0  0  0
 12 19  1  1  0  0  0
 17 22  1  0  0  0  0
 21 26  1  0  0  0  0
 25 29  1  0  0  0  0
 40 42  1  0  0  0  0
 52 54  1  0  0  0  0
M  END
>  <MolRegNo>
349663

>  <m>


>  <Value>
0

>  <Unit>


>  <Type>
Activity

>  <Ligand Efficiency>


>  <Binding Efficiency>


>  <Surface Efficiency>


>  <Assay Index>
294025

>  <Assay Category>


>  <Assay Organism>
SARS coronavirus

>  <Target ID>
100499

>  <Target Name>
SARS coronavirus

>  <Target Organism>
SARS coronavirus

>  <Target Description>
Target is a complete organism

>  <Sequence Accession>


>  <Reference>
J. Med. Chem. 50 (17), 4087-4095 (2007)

>  <Pubmed ID>
17663539

>  <DOI>
10.1021/jm070295s

>  <InChI-Key>
LPLVUJXQOOQHMX-PRWQXZRYSA-N

>  <Molecular Formula>
C42H62O16

>  <Monoisotopic Mass>
822.403790

>  <Druglikeness>
-4.2912

$$$$
Compound 334
Actelion Java MolfileCreator 1.0

 58 64  0  0  0  0  0  0  0  0999 V2000
    0.0000   -0.0000   -0.0000 O   0  0  0  0  0  0  0  0  0  0  0  0
    1.2818   -0.7358   -0.0000 C   0  0  0  0  0  0  0  0  0  0  0  0
    2.5754    0.0119   -0.0000 C   0  0  0  0  0  0  0  0  0  0  0  0
    1.2699   -2.2194   -0.0000 C   0  0  0  0  0  0  0  0  0  0  0  0
    3.8572   -0.7358   -0.0000 C   0  0  0  0  0  0  0  0  0  0  0  0
    2.5517   -2.9671   -0.0000 C   0  0  0  0  0  0  0  0  0  0  0  0
   -0.0356   -2.9671   -0.0000 C   0  0  0  0  0  0  0  0  0  0  0  0
    3.8216   -2.2194   -0.0000 C   0  0  0  0  0  0  0  0  0  0  0  0
    5.1389    0.0119   -0.0000 C   0  0  0  0  0  0  0  0  0  0  0  0
    2.5517   -4.4506   -0.0000 C   0  0  0  0  0  0  0  0  0  0  0  0
    2.5279   -1.4479   -0.0000 C   0  0  0  0  0  0  0  0  0  0  0  0
   -0.0475   -4.4624   -0.0000 C   0  0  0  0  0  0  0  0  0  0  0  0
   -1.3411   -2.1956   -0.0000 C   0  0  0  0  0  0  0  0  0  0  0  0
   -0.0593   -1.4479   -0.0000 C   0  0  0  0  0  0  0  0  0  0  0  0
    5.0915   -2.9671   -0.0000 C   0  0  0  0  0  0  0  0  0  0  0  0
    3.7978   -3.7029   -0.0000 C   0  0  0  0  0  0  0  0  0  0  0  0
    6.4088   -0.7358   -0.0000 C   0  0  0  0  0  0  0  0  0  0  0  0
    5.1508    1.5073   -0.0000 C   0  0  0  0  0  0  0  0  0  0  0  0
    1.2343   -5.1864   -0.0000 C   0  0  0  0  0  0  0  0  0  0  0  0
   -1.3648   -5.1864   -0.0000 C   0  0  0  0  0  0  0  0  0  0  0  0
   -2.6466   -2.9433   -0.0000 C   0  0  0  0  0  0  0  0  0  0  0  0
    6.3851   -2.2312   -0.0000 C   0  0  0  0  0  0  0  0  0  0  0  0
    7.6906   -0.0119   -0.0000 C   0  0  0  0  0  0  0  0  0  0  0  0
    6.3851    0.7833   -0.0000 C   0  0  0  0  0  0  0  0  0  0  0  0
    6.4444    2.2431   -0.0000 C   0  0  0  0  0  0  0  0  0  0  0  0
   -2.6703   -4.4387   -0.0000 C   0  0  0  0  0  0  0  0  0  0  0  0
   -0.6290   -6.4682   -0.0000 C   0  0  0  0  0  0  0  0  0  0  0  0
   -2.1244   -6.4682   -0.0000 C   0  0  0  0  0  0  0  0  0  0  0  0
    7.7143    1.4954   -0.0000 C   0  0  0  0  0  0  0  0  0  0  0  0
    7.1803    3.5605   -0.0000 C   0  0  0  0  0  0  0  0  0  0  0  0
    5.6730    3.5605   -0.0000 C   0  0  0  0  0  0  0  0  0  0  0  0
   -3.9759   -5.1745   -0.0000 O   0  0  0  0  0  0  0  0  0  0  0  0
    6.4207    4.8660   -0.0000 O   0  0  0  0  0  0  0  0  0  0  0  0
    8.6757    3.5723   -0.0000 O   0  0  0  0  0  0  0  0  0  0  0  0
   -5.2932   -4.4150   -0.0000 C   0  0  0  0  0  0  0  0  0  0  0  0
   -5.3051   -2.8958   -0.0000 O   0  0  0  0  0  0  0  0  0  0  0  0
   -6.6106   -5.1508   -0.0000 C   0  0  0  0  0  0  0  0  0  0  0  0
   -6.6106   -2.1244   -0.0000 C   0  0  0  0  0  0  0  0  0  0  0  0
   -6.6225   -6.6462   -0.0000 O   0  0  0  0  0  0  0  0  0  0  0  0
   -7.9280   -4.3794   -0.0000 C   0  0  0  0  0  0  0  0  0  0  0  0
   -6.6225   -0.6053   -0.0000 C   0  0  0  0  0  0  0  0  0  0  0  0
   -7.9280   -2.8602   -0.0000 C   0  0  0  0  0  0  0  0  0  0  0  0
   -7.9398   -7.3820   -0.0000 C   0  0  0  0  0  0  0  0  0  0  0  0
   -9.2453   -5.1152   -0.0000 O   0  0  0  0  0  0  0  0  0  0  0  0
   -7.9280    0.1543   -0.0000 O   0  0  0  0  0  0  0  0  0  0  0  0
   -5.3288    0.1543   -0.0000 O   0  0  0  0  0  0  0  0  0  0  0  0
   -9.2335   -2.0888   -0.0000 O   0  0  0  0  0  0  0  0  0  0  0  0
   -9.2572   -6.6225   -0.0000 O   0  0  0  0  0  0  0  0  0  0  0  0
   -7.9517   -8.8774   -0.0000 C   0  0  0  0  0  0  0  0  0  0  0  0
  -10.5627   -7.3583   -0.0000 C   0  0  0  0  0  0  0  0  0  0  0  0
   -6.6699   -9.6133   -0.0000 O   0  0  0  0  0  0  0  0  0  0  0  0
   -9.2691   -9.6014   -0.0000 C   0  0  0  0  0  0  0  0  0  0  0  0
  -11.8682   -6.5869   -0.0000 C   0  0  0  0  0  0  0  0  0  0  0  0
  -10.5864   -8.8537   -0.0000 C   0  0  0  0  0  0  0  0  0  0  0  0
   -9.2928  -11.0968   -0.0000 O   0  0  0  0  0  0  0  0  0  0  0  0
  -13.1856   -7.3227   -0.0000 O   0  0  0  0  0  0  0  0  0  0  0  0
  -11.8682   -5.0677   -0.0000 O   0  0  0  0  0  0  0  0  0  0  0  0
  -11.9038   -9.5776   -0.0000 O   0  0  0  0  0  0  0  0  0  0  0  0
  1  2  2  0  0  0  0
  2  3  1  0  0  0  0
  4  2  1  1  0  0  0
  3  5  2  0  0  0  0
  4  6  1  0  0  0  0
  4  7  1  0  0  0  0
  5  8  1  0  0  0  0
  5  9  1  0  0  0  0
  6 10  1  0  0  0  0
  6 11  1  1  0  0  0
  7 12  1  0  0  0  0
  7 13  1  0  0  0  0
  7 14  1  1  0  0  0
  8 15  1  0  0  0  0
  8 16  1  6  0  0  0
  9 17  1  0  0  0  0
  9 18  1  6  0  0  0
 10 19  1  0  0  0  0
 12 20  1  0  0  0  0
 13 21  1  0  0  0  0
 15 22  1  0  0  0  0
 17 23  1  0  0  0  0
 17 24  1  1  0  0  0
 18 25  1  0  0  0  0
 20 26  1  0  0  0  0
 20 27  1  0  0  0  0
 20 28  1  0  0  0  0
 23 29  1  0  0  0  0
 25 30  1  0  0  0  0
 25 31  1  6  0  0  0
 26 32  1  1  0  0  0
 30 33  2  0  0  0  0
 30 34  1  0  0  0  0
 35 32  1  6  0  0  0
 35 36  1  0  0  0  0
 35 37  1  0  0  0  0
 36 38  1  0  0  0  0
 37 39  1  6  0  0  0
 37 40  1  0  0  0  0
 38 41  1  1  0  0  0
 38 42  1  0  0  0  0
 43 39  1  1  0  0  0
 40 44  1  1  0  0  0
 41 45  2  0  0  0  0
 41 46  1  0  0  0  0
 42 47  1  6  0  0  0
 43 48  1  0  0  0  0
 43 49  1  0  0  0  0
 48 50  1  0  0  0  0
 49 51  1  6  0  0  0
 49 52  1  0  0  0  0
 50 53  1  1  0  0  0
 50 54  1  0  0  0  0
 52 55  1  1  0  0  0
 53 56  2  0  0  0  0
 53 57  1  0  0  0  0
 54 58  1  6  0  0  0
  6  8  1  0  0  0  0
 12 19  1  1  0  0  0
 17 22  1  0  0  0  0
 21 26  1  0  0  0  0
 25 29  1  0  0  0  0
 40 42  1  0  0  0  0
 52 54  1  0  0  0  0
M  END
>  <MolRegNo>
349663

>  <m>


>  <Value>
0

>  <Unit>


>  <Type>
Activity

>  <Ligand Efficiency>


>  <Binding Efficiency>


>  <Surface Efficiency>


>  <Assay Index>
294024

>  <Assay Category>


>  <Assay Organism>
SARS coronavirus

>  <Target ID>
100499

>  <Target Name>
SARS coronavirus

>  <Target Organism>
SARS coronavirus

>  <Target Description>
Target is a complete organism

>  <Sequence Accession>


>  <Reference>
J. Med. Chem. 50 (17), 4087-4095 (2007)

>  <Pubmed ID>
17663539

>  <DOI>
10.1021/jm070295s

>  <InChI-Key>
LPLVUJXQOOQHMX-PRWQXZRYSA-N

>  <Molecular Formula>
C42H62O16

>  <Monoisotopic Mass>
822.403790

>  <Druglikeness>
-4.2912

$$$$
Compound 335
Actelion Java MolfileCreator 1.0

 58 64  0  0  0  0  0  0  0  0999 V2000
    0.0000   -0.0000   -0.0000 O   0  0  0  0  0  0  0  0  0  0  0  0
    1.2818   -0.7358   -0.0000 C   0  0  0  0  0  0  0  0  0  0  0  0
    2.5754    0.0119   -0.0000 C   0  0  0  0  0  0  0  0  0  0  0  0
    1.2699   -2.2194   -0.0000 C   0  0  0  0  0  0  0  0  0  0  0  0
    3.8572   -0.7358   -0.0000 C   0  0  0  0  0  0  0  0  0  0  0  0
    2.5517   -2.9671   -0.0000 C   0  0  0  0  0  0  0  0  0  0  0  0
   -0.0356   -2.9671   -0.0000 C   0  0  0  0  0  0  0  0  0  0  0  0
    3.8216   -2.2194   -0.0000 C   0  0  0  0  0  0  0  0  0  0  0  0
    5.1389    0.0119   -0.0000 C   0  0  0  0  0  0  0  0  0  0  0  0
    2.5517   -4.4506   -0.0000 C   0  0  0  0  0  0  0  0  0  0  0  0
    2.5279   -1.4479   -0.0000 C   0  0  0  0  0  0  0  0  0  0  0  0
   -0.0475   -4.4624   -0.0000 C   0  0  0  0  0  0  0  0  0  0  0  0
   -1.3411   -2.1956   -0.0000 C   0  0  0  0  0  0  0  0  0  0  0  0
   -0.0593   -1.4479   -0.0000 C   0  0  0  0  0  0  0  0  0  0  0  0
    5.0915   -2.9671   -0.0000 C   0  0  0  0  0  0  0  0  0  0  0  0
    3.7978   -3.7029   -0.0000 C   0  0  0  0  0  0  0  0  0  0  0  0
    6.4088   -0.7358   -0.0000 C   0  0  0  0  0  0  0  0  0  0  0  0
    5.1508    1.5073   -0.0000 C   0  0  0  0  0  0  0  0  0  0  0  0
    1.2343   -5.1864   -0.0000 C   0  0  0  0  0  0  0  0  0  0  0  0
   -1.3648   -5.1864   -0.0000 C   0  0  0  0  0  0  0  0  0  0  0  0
   -2.6466   -2.9433   -0.0000 C   0  0  0  0  0  0  0  0  0  0  0  0
    6.3851   -2.2312   -0.0000 C   0  0  0  0  0  0  0  0  0  0  0  0
    7.6906   -0.0119   -0.0000 C   0  0  0  0  0  0  0  0  0  0  0  0
    6.3851    0.7833   -0.0000 C   0  0  0  0  0  0  0  0  0  0  0  0
    6.4444    2.2431   -0.0000 C   0  0  0  0  0  0  0  0  0  0  0  0
   -2.6703   -4.4387   -0.0000 C   0  0  0  0  0  0  0  0  0  0  0  0
   -0.6290   -6.4682   -0.0000 C   0  0  0  0  0  0  0  0  0  0  0  0
   -2.1244   -6.4682   -0.0000 C   0  0  0  0  0  0  0  0  0  0  0  0
    7.7143    1.4954   -0.0000 C   0  0  0  0  0  0  0  0  0  0  0  0
    7.1803    3.5605   -0.0000 C   0  0  0  0  0  0  0  0  0  0  0  0
    5.6730    3.5605   -0.0000 C   0  0  0  0  0  0  0  0  0  0  0  0
   -3.9759   -5.1745   -0.0000 O   0  0  0  0  0  0  0  0  0  0  0  0
    6.4207    4.8660   -0.0000 O   0  0  0  0  0  0  0  0  0  0  0  0
    8.6757    3.5723   -0.0000 O   0  0  0  0  0  0  0  0  0  0  0  0
   -5.2932   -4.4150   -0.0000 C   0  0  0  0  0  0  0  0  0  0  0  0
   -5.3051   -2.8958   -0.0000 O   0  0  0  0  0  0  0  0  0  0  0  0
   -6.6106   -5.1508   -0.0000 C   0  0  0  0  0  0  0  0  0  0  0  0
   -6.6106   -2.1244   -0.0000 C   0  0  0  0  0  0  0  0  0  0  0  0
   -6.6225   -6.6462   -0.0000 O   0  0  0  0  0  0  0  0  0  0  0  0
   -7.9280   -4.3794   -0.0000 C   0  0  0  0  0  0  0  0  0  0  0  0
   -6.6225   -0.6053   -0.0000 C   0  0  0  0  0  0  0  0  0  0  0  0
   -7.9280   -2.8602   -0.0000 C   0  0  0  0  0  0  0  0  0  0  0  0
   -7.9398   -7.3820   -0.0000 C   0  0  0  0  0  0  0  0  0  0  0  0
   -9.2453   -5.1152   -0.0000 O   0  0  0  0  0  0  0  0  0  0  0  0
   -7.9280    0.1543   -0.0000 O   0  0  0  0  0  0  0  0  0  0  0  0
   -5.3288    0.1543   -0.0000 O   0  0  0  0  0  0  0  0  0  0  0  0
   -9.2335   -2.0888   -0.0000 O   0  0  0  0  0  0  0  0  0  0  0  0
   -9.2572   -6.6225   -0.0000 O   0  0  0  0  0  0  0  0  0  0  0  0
   -7.9517   -8.8774   -0.0000 C   0  0  0  0  0  0  0  0  0  0  0  0
  -10.5627   -7.3583   -0.0000 C   0  0  0  0  0  0  0  0  0  0  0  0
   -6.6699   -9.6133   -0.0000 O   0  0  0  0  0  0  0  0  0  0  0  0
   -9.2691   -9.6014   -0.0000 C   0  0  0  0  0  0  0  0  0  0  0  0
  -11.8682   -6.5869   -0.0000 C   0  0  0  0  0  0  0  0  0  0  0  0
  -10.5864   -8.8537   -0.0000 C   0  0  0  0  0  0  0  0  0  0  0  0
   -9.2928  -11.0968   -0.0000 O   0  0  0  0  0  0  0  0  0  0  0  0
  -13.1856   -7.3227   -0.0000 O   0  0  0  0  0  0  0  0  0  0  0  0
  -11.8682   -5.0677   -0.0000 O   0  0  0  0  0  0  0  0  0  0  0  0
  -11.9038   -9.5776   -0.0000 O   0  0  0  0  0  0  0  0  0  0  0  0
  1  2  2  0  0  0  0
  2  3  1  0  0  0  0
  4  2  1  1  0  0  0
  3  5  2  0  0  0  0
  4  6  1  0  0  0  0
  4  7  1  0  0  0  0
  5  8  1  0  0  0  0
  5  9  1  0  0  0  0
  6 10  1  0  0  0  0
  6 11  1  1  0  0  0
  7 12  1  0  0  0  0
  7 13  1  0  0  0  0
  7 14  1  1  0  0  0
  8 15  1  0  0  0  0
  8 16  1  6  0  0  0
  9 17  1  0  0  0  0
  9 18  1  6  0  0  0
 10 19  1  0  0  0  0
 12 20  1  0  0  0  0
 13 21  1  0  0  0  0
 15 22  1  0  0  0  0
 17 23  1  0  0  0  0
 17 24  1  1  0  0  0
 18 25  1  0  0  0  0
 20 26  1  0  0  0  0
 20 27  1  0  0  0  0
 20 28  1  0  0  0  0
 23 29  1  0  0  0  0
 25 30  1  0  0  0  0
 25 31  1  6  0  0  0
 26 32  1  1  0  0  0
 30 33  2  0  0  0  0
 30 34  1  0  0  0  0
 35 32  1  6  0  0  0
 35 36  1  0  0  0  0
 35 37  1  0  0  0  0
 36 38  1  0  0  0  0
 37 39  1  6  0  0  0
 37 40  1  0  0  0  0
 38 41  1  1  0  0  0
 38 42  1  0  0  0  0
 43 39  1  1  0  0  0
 40 44  1  1  0  0  0
 41 45  2  0  0  0  0
 41 46  1  0  0  0  0
 42 47  1  6  0  0  0
 43 48  1  0  0  0  0
 43 49  1  0  0  0  0
 48 50  1  0  0  0  0
 49 51  1  6  0  0  0
 49 52  1  0  0  0  0
 50 53  1  1  0  0  0
 50 54  1  0  0  0  0
 52 55  1  1  0  0  0
 53 56  2  0  0  0  0
 53 57  1  0  0  0  0
 54 58  1  6  0  0  0
  6  8  1  0  0  0  0
 12 19  1  1  0  0  0
 17 22  1  0  0  0  0
 21 26  1  0  0  0  0
 25 29  1  0  0  0  0
 40 42  1  0  0  0  0
 52 54  1  0  0  0  0
M  END
>  <MolRegNo>
349663

>  <m>


>  <Value>
0

>  <Unit>


>  <Type>
Activity

>  <Ligand Efficiency>


>  <Binding Efficiency>


>  <Surface Efficiency>


>  <Assay Index>
294022

>  <Assay Category>


>  <Assay Organism>
SARS coronavirus

>  <Target ID>
100499

>  <Target Name>
SARS coronavirus

>  <Target Organism>
SARS coronavirus

>  <Target Description>
Target is a complete organism

>  <Sequence Accession>


>  <Reference>
J. Med. Chem. 50 (17), 4087-4095 (2007)

>  <Pubmed ID>
17663539

>  <DOI>
10.1021/jm070295s

>  <InChI-Key>
LPLVUJXQOOQHMX-PRWQXZRYSA-N

>  <Molecular Formula>
C42H62O16

>  <Monoisotopic Mass>
822.403790

>  <Druglikeness>
-4.2912

$$$$
Compound 336
Actelion Java MolfileCreator 1.0

 22 23  0  0  1  0  0  0  0  0999 V2000
    0.0000   -0.0000   -0.0000 O   0  0  0  0  0  0  0  0  0  0  0  0
   -0.0118    1.5022   -0.0000 C   0  0  0  0  0  0  0  0  0  0  0  0
    1.2775    2.2592   -0.0000 O   0  0  0  0  0  0  0  0  0  0  0  0
   -1.3130    2.2592   -0.0000 C   0  0  0  0  0  0  0  0  0  0  0  0
    2.5550    1.5259   -0.0000 C   0  0  0  0  0  0  0  0  0  0  0  0
   -2.0700    3.5722   -0.0000 N   0  0  0  0  0  0  0  0  0  0  0  0
   -2.8152    2.2711   -0.0000 C   0  0  0  0  0  0  0  0  0  0  0  0
   -2.0818    5.0744   -0.0000 C   0  0  0  0  0  0  0  0  0  0  0  0
   -3.3829    5.8314   -0.0000 C   0  0  0  0  0  0  0  0  0  0  0  0
   -0.8043    5.8314   -0.0000 C   0  0  0  0  0  0  0  0  0  0  0  0
   -4.6959    5.0981   -0.0000 O   0  0  0  0  0  0  0  0  0  0  0  0
   -3.3948    7.3337   -0.0000 O   0  0  0  0  0  0  0  0  0  0  0  0
    0.4731    5.0981   -0.0000 C   0  0  0  0  0  0  0  0  0  0  0  0
   -2.1173    8.0907   -0.0000 C   0  0  0  0  0  0  0  0  0  0  0  0
    0.4613    3.6195   -0.0000 C   0  0  0  0  0  0  0  0  0  0  0  0
    1.7506    5.8551   -0.0000 C   0  0  0  0  0  0  0  0  0  0  0  0
   -2.1410    9.6047   -0.0000 C   0  0  0  0  0  0  0  0  0  0  0  0
   -0.8517   10.3736   -0.0000 C   0  0  0  0  0  0  0  0  0  0  0  0
   -3.4539   10.3499   -0.0000 C   0  0  0  0  0  0  0  0  0  0  0  0
   -0.8753   11.8876   -0.0000 C   0  0  0  0  0  0  0  0  0  0  0  0
   -3.4894   11.8640   -0.0000 C   0  0  0  0  0  0  0  0  0  0  0  0
   -2.2001   12.6446   -0.0000 C   0  0  0  0  0  0  0  0  0  0  0  0
  1  2  2  0  0  0  0
  2  3  1  0  0  0  0
  2  4  1  0  0  0  0
  3  5  1  0  0  0  0
  4  6  1  0  0  0  0
  4  7  1  0  0  0  0
  8  6  1  6  0  0  0
  8  9  1  0  0  0  0
  8 10  1  0  0  0  0
  9 11  2  0  0  0  0
  9 12  1  0  0  0  0
 10 13  1  0  0  0  0
 12 14  1  0  0  0  0
 13 15  1  0  0  0  0
 13 16  1  0  0  0  0
 14 17  1  0  0  0  0
 17 18  2  0  0  0  0
 17 19  1  0  0  0  0
 18 20  1  0  0  0  0
 19 21  2  0  0  0  0
 20 22  2  0  0  0  0
  6  7  1  0  0  0  0
 21 22  1  0  0  0  0
M  END
>  <MolRegNo>
333664

>  <m>
=

>  <Value>
34

>  <Unit>
%

>  <Type>
Inhibition

>  <Ligand Efficiency>


>  <Binding Efficiency>


>  <Surface Efficiency>


>  <Assay Index>
254531

>  <Assay Category>


>  <Assay Organism>
SARS coronavirus

>  <Target ID>
20012

>  <Target Name>
SARS coronavirus 3C-like proteinase

>  <Target Organism>
SARS coronavirus

>  <Target Description>
Target is a single protein chain

>  <Sequence Accession>
P0C6U8

>  <Reference>
Bioorg. Med. Chem. Lett. 15 (24), 5365-5369 (2005)

>  <Pubmed ID>
16216498

>  <DOI>
10.1016/j.bmcl.2005.09.012

>  <InChI-Key>
LRRRCAOYLQZAKO-SYJJWHGVSA-N

>  <Molecular Formula>
C17H23NO4

>  <Monoisotopic Mass>
305.162709

>  <Druglikeness>
1.0494

$$$$
Compound 337
Actelion Java MolfileCreator 1.0

 25 28  0  0  0  0  0  0  0  0999 V2000
    0.0000   -0.0000   -0.0000 O   0  0  0  0  0  0  0  0  0  0  0  0
    1.3002    0.7634   -0.0000 C   0  0  0  0  0  0  0  0  0  0  0  0
    1.2763    2.2783   -0.0000 O   0  0  0  0  0  0  0  0  0  0  0  0
    2.5884    0.0239   -0.0000 C   0  0  0  0  0  0  0  0  0  0  0  0
    3.8766    0.7873   -0.0000 C   0  0  0  0  0  0  0  0  0  0  0  0
    2.5765   -1.4791   -0.0000 C   0  0  0  0  0  0  0  0  0  0  0  0
    5.1649    0.0477   -0.0000 C   0  0  0  0  0  0  0  0  0  0  0  0
    3.8647   -2.2067   -0.0000 C   0  0  0  0  0  0  0  0  0  0  0  0
    5.1529   -1.4433   -0.0000 C   0  0  0  0  0  0  0  0  0  0  0  0
    6.4412   -2.1828   -0.0000 N   0  0  0  0  0  0  0  0  0  0  0  0
    7.7294   -1.4194   -0.0000 C   0  0  0  0  0  0  0  0  0  0  0  0
    9.0177   -2.1590   -0.0000 C   0  0  0  0  0  0  0  0  0  0  0  0
   10.2940   -1.3956   -0.0000 C   0  0  0  0  0  0  0  0  0  0  0  0
    9.0057   -3.6500   -0.0000 C   0  0  0  0  0  0  0  0  0  0  0  0
   10.2701    0.1193   -0.0000 O   0  0  0  0  0  0  0  0  0  0  0  0
   11.5941   -2.1232   -0.0000 C   0  0  0  0  0  0  0  0  0  0  0  0
   10.2940   -4.4015   -0.0000 C   0  0  0  0  0  0  0  0  0  0  0  0
    7.8606   -4.6400   -0.0000 C   0  0  0  0  0  0  0  0  0  0  0  0
   11.5822   -3.6261   -0.0000 C   0  0  0  0  0  0  0  0  0  0  0  0
    9.9600   -5.8567   -0.0000 O   0  0  0  0  0  0  0  0  0  0  0  0
    8.4570   -6.0118   -0.0000 C   0  0  0  0  0  0  0  0  0  0  0  0
    6.3458   -4.4730   -0.0000 C   0  0  0  0  0  0  0  0  0  0  0  0
    7.5624   -7.2284   -0.0000 C   0  0  0  0  0  0  0  0  0  0  0  0
    5.4392   -5.6778   -0.0000 C   0  0  0  0  0  0  0  0  0  0  0  0
    6.0356   -7.0495   -0.0000 C   0  0  0  0  0  0  0  0  0  0  0  0
  1  2  2  0  0  0  0
  2  3  1  0  0  0  0
  2  4  1  0  0  0  0
  4  5  2  0  0  0  0
  4  6  1  0  0  0  0
  5  7  1  0  0  0  0
  6  8  2  0  0  0  0
  7  9  2  0  0  0  0
  9 10  1  0  0  0  0
 10 11  2  0  0  0  0
 11 12  1  0  0  0  0
 12 13  2  0  0  0  0
 12 14  1  0  0  0  0
 13 15  1  0  0  0  0
 13 16  1  0  0  0  0
 14 17  2  0  0  0  0
 14 18  1  0  0  0  0
 16 19  2  0  0  0  0
 17 20  1  0  0  0  0
 18 21  2  0  0  0  0
 18 22  1  0  0  0  0
 21 23  1  0  0  0  0
 22 24  1  0  0  0  0
 23 25  1  0  0  0  0
  8  9  1  0  0  0  0
 17 19  1  0  0  0  0
 20 21  1  0  0  0  0
 24 25  1  0  0  0  0
M  END
>  <MolRegNo>
339173

>  <m>
=

>  <Value>
23000

>  <Unit>
nM

>  <Type>
EC50

>  <Ligand Efficiency>


>  <Binding Efficiency>


>  <Surface Efficiency>


>  <Assay Index>
257470

>  <Assay Category>


>  <Assay Organism>
SARS coronavirus

>  <Target ID>
100499

>  <Target Name>
SARS coronavirus

>  <Target Organism>
SARS coronavirus

>  <Target Description>
Target is a complete organism

>  <Sequence Accession>


>  <Reference>
Bioorg. Med. Chem. Lett. 16 (4), 830-833 (2006)

>  <Pubmed ID>
16325400

>  <DOI>
10.1016/j.bmcl.2005.11.018

>  <InChI-Key>
LRXFKEUZIPSQTJ-UHFFFAOYSA-N

>  <Molecular Formula>
C20H17NO4

>  <Monoisotopic Mass>
335.115759

>  <Druglikeness>
-4.6821

$$$$
Compound 338
Actelion Java MolfileCreator 1.0

 22 24  0  0  0  0  0  0  0  0999 V2000
    0.0000   -0.0000   -0.0000 O   0  0  0  0  0  0  0  0  0  0  0  0
   -1.0744    0.6277   -0.0000 C   0  0  0  0  0  0  0  0  0  0  0  0
   -2.4143   -0.1328   -0.0000 N   0  0  0  0  0  0  0  0  0  0  0  0
   -1.0864    2.1729   -0.0000 C   0  0  0  0  0  0  0  0  0  0  0  0
   -2.4264   -1.6538   -0.0000 C   0  0  0  0  0  0  0  0  0  0  0  0
   -2.4264    2.9455   -0.0000 C   0  0  0  0  0  0  0  0  0  0  0  0
    0.2294    2.9576   -0.0000 C   0  0  0  0  0  0  0  0  0  0  0  0
   -3.7664   -2.4143   -0.0000 C   0  0  0  0  0  0  0  0  0  0  0  0
   -1.3762   -2.2574   -0.0000 C   0  0  0  0  0  0  0  0  0  0  0  0
   -2.4385    4.4907   -0.0000 C   0  0  0  0  0  0  0  0  0  0  0  0
    0.2173    4.5027   -0.0000 C   0  0  0  0  0  0  0  0  0  0  0  0
   -5.1063   -1.6417   -0.0000 C   0  0  0  0  0  0  0  0  0  0  0  0
   -3.7784   -3.9354   -0.0000 C   0  0  0  0  0  0  0  0  0  0  0  0
   -1.1227    5.2753   -0.0000 C   0  0  0  0  0  0  0  0  0  0  0  0
   -3.5129    5.1063   -0.0000 C   0  0  0  0  0  0  0  0  0  0  0  0
   -6.4463   -2.3902   -0.0000 C   0  0  0  0  0  0  0  0  0  0  0  0
   -5.1184   -4.6838   -0.0000 C   0  0  0  0  0  0  0  0  0  0  0  0
   -6.4583   -3.9112   -0.0000 C   0  0  0  0  0  0  0  0  0  0  0  0
   -7.7862   -1.6176   -0.0000 C   0  0  0  0  0  0  0  0  0  0  0  0
   -7.7983   -4.6597   -0.0000 C   0  0  0  0  0  0  0  0  0  0  0  0
   -9.1382   -2.3660   -0.0000 C   0  0  0  0  0  0  0  0  0  0  0  0
   -9.1503   -3.8871   -0.0000 C   0  0  0  0  0  0  0  0  0  0  0  0
  1  2  2  0  0  0  0
  2  3  1  0  0  0  0
  2  4  1  0  0  0  0
  5  3  1  1  0  0  0
  4  6  2  0  0  0  0
  4  7  1  0  0  0  0
  5  8  1  0  0  0  0
  5  9  1  0  0  0  0
  6 10  1  0  0  0  0
  7 11  2  0  0  0  0
  8 12  2  0  0  0  0
  8 13  1  0  0  0  0
 10 14  2  0  0  0  0
 10 15  1  0  0  0  0
 12 16  1  0  0  0  0
 13 17  2  0  0  0  0
 16 18  1  0  0  0  0
 16 19  2  0  0  0  0
 18 20  2  0  0  0  0
 19 21  1  0  0  0  0
 20 22  1  0  0  0  0
 11 14  1  0  0  0  0
 17 18  1  0  0  0  0
 21 22  2  0  0  0  0
M  END
>  <MolRegNo>
558547

>  <m>


>  <Value>
0

>  <Unit>


>  <Type>
EC50

>  <Ligand Efficiency>


>  <Binding Efficiency>


>  <Surface Efficiency>


>  <Assay Index>
425462

>  <Assay Category>


>  <Assay Organism>
SARS coronavirus

>  <Target ID>
100499

>  <Target Name>
SARS coronavirus

>  <Target Organism>
SARS coronavirus

>  <Target Description>
Target is a complete organism

>  <Sequence Accession>


>  <Reference>
J. Med. Chem. 52 (16), 5228-5240 (2009)

>  <Pubmed ID>
19645480

>  <DOI>
10.1021/jm900611t

>  <InChI-Key>
LVNRFCFYRYHIAZ-HNNXBMFYSA-N

>  <Molecular Formula>
C20H19NO

>  <Monoisotopic Mass>
289.146664

>  <Druglikeness>
2.4802

$$$$
Compound 339
Actelion Java MolfileCreator 1.0

 21 23  0  0  0  0  0  0  0  0999 V2000
    0.0000   -0.0000   -0.0000 Cl  0  0  0  0  0  0  0  0  0  0  0  0
    1.2831   -0.7366   -0.0000 C   0  0  0  0  0  0  0  0  0  0  0  0
    2.5661    0.0238   -0.0000 C   0  0  0  0  0  0  0  0  0  0  0  0
    1.2712   -2.2216   -0.0000 C   0  0  0  0  0  0  0  0  0  0  0  0
    3.8492   -0.7128   -0.0000 C   0  0  0  0  0  0  0  0  0  0  0  0
    2.5542    1.5325   -0.0000 C   0  0  0  0  0  0  0  0  0  0  0  0
    2.5542   -2.9581   -0.0000 C   0  0  0  0  0  0  0  0  0  0  0  0
    5.1322    0.0475   -0.0000 Cl  0  0  0  0  0  0  0  0  0  0  0  0
    3.8373   -2.2097   -0.0000 C   0  0  0  0  0  0  0  0  0  0  0  0
    3.7422    2.4235   -0.0000 S   0  0  0  0  0  0  0  0  0  0  0  0
    1.3187    2.4117   -0.0000 N   0  0  0  0  0  0  0  0  0  0  0  0
    3.2670    3.8610   -0.0000 C   0  0  0  0  0  0  0  0  0  0  0  0
    1.7701    3.8492   -0.0000 C   0  0  0  0  0  0  0  0  0  0  0  0
   -0.1188    1.9483   -0.0000 C   0  0  0  0  0  0  0  0  0  0  0  0
    0.8791    5.0728   -0.0000 O   0  0  0  0  0  0  0  0  0  0  0  0
   -1.2474    2.9581   -0.0000 C   0  0  0  0  0  0  0  0  0  0  0  0
   -0.9504    4.4313   -0.0000 C   0  0  0  0  0  0  0  0  0  0  0  0
   -2.6730    2.4948   -0.0000 C   0  0  0  0  0  0  0  0  0  0  0  0
   -2.0790    5.4411   -0.0000 N   0  0  0  0  0  0  0  0  0  0  0  0
   -3.8016    3.4927   -0.0000 C   0  0  0  0  0  0  0  0  0  0  0  0
   -3.5165    4.9778   -0.0000 C   0  0  0  0  0  0  0  0  0  0  0  0
  1  2  1  0  0  0  0
  2  3  2  0  0  0  0
  2  4  1  0  0  0  0
  3  5  1  0  0  0  0
  3  6  1  0  0  0  0
  4  7  2  0  0  0  0
  5  8  1  0  0  0  0
  5  9  2  0  0  0  0
  6 10  1  0  0  0  0
  6 11  1  0  0  0  0
 10 12  1  0  0  0  0
 11 13  1  0  0  0  0
 11 14  1  0  0  0  0
 13 15  2  0  0  0  0
 14 16  1  0  0  0  0
 16 17  2  0  0  0  0
 16 18  1  0  0  0  0
 17 19  1  0  0  0  0
 18 20  2  0  0  0  0
 19 21  2  0  0  0  0
  7  9  1  0  0  0  0
 12 13  1  0  0  0  0
 20 21  1  0  0  0  0
M  END
>  <MolRegNo>
452856

>  <m>
<=

>  <Value>
50

>  <Unit>
%

>  <Type>
Inhibition

>  <Ligand Efficiency>


>  <Binding Efficiency>


>  <Surface Efficiency>


>  <Assay Index>
406904

>  <Assay Category>


>  <Assay Organism>
SARS coronavirus

>  <Target ID>
101075

>  <Target Name>
Replicase polyprotein 1ab

>  <Target Organism>
SARS coronavirus

>  <Target Description>
Target is a single protein chain

>  <Sequence Accession>
P0C6X7

>  <Reference>
Bioorg. Med. Chem. Lett. 18 (23), 6110-6114 (2008)

>  <Pubmed ID>
18947995

>  <DOI>
10.1016/j.bmcl.2008.10.023

>  <InChI-Key>
LWXCPGHJKWJLOG-UHFFFAOYSA-N

>  <Molecular Formula>
C15H12N2OCl2S

>  <Monoisotopic Mass>
338.004737

>  <Druglikeness>
4.075

$$$$
Compound 340
Actelion Java MolfileCreator 1.0

 31 34  0  0  0  0  0  0  0  0999 V2000
    0.0000   -0.0000   -0.0000 Cl  0  0  0  0  0  0  0  0  0  0  0  0
   -1.3042    0.7707   -0.0000 C   0  0  0  0  0  0  0  0  0  0  0  0
   -1.3161    2.2765   -0.0000 C   0  0  0  0  0  0  0  0  0  0  0  0
   -2.6085    0.0356   -0.0000 C   0  0  0  0  0  0  0  0  0  0  0  0
   -2.6322    3.0353   -0.0000 N   0  0  0  0  0  0  0  0  0  0  0  0
   -3.9127    0.8063   -0.0000 C   0  0  0  0  0  0  0  0  0  0  0  0
   -3.9364    2.3002   -0.0000 C   0  0  0  0  0  0  0  0  0  0  0  0
   -5.2288    0.0711   -0.0000 O   0  0  0  0  0  0  0  0  0  0  0  0
   -6.5330    0.8300   -0.0000 C   0  0  0  0  0  0  0  0  0  0  0  0
   -6.5449    2.3358   -0.0000 O   0  0  0  0  0  0  0  0  0  0  0  0
   -7.8491    0.0949   -0.0000 C   0  0  0  0  0  0  0  0  0  0  0  0
   -9.1534    0.8655   -0.0000 C   0  0  0  0  0  0  0  0  0  0  0  0
   -7.8610   -1.3872   -0.0000 C   0  0  0  0  0  0  0  0  0  0  0  0
  -10.4576    0.1304   -0.0000 C   0  0  0  0  0  0  0  0  0  0  0  0
   -9.1652   -2.1223   -0.0000 C   0  0  0  0  0  0  0  0  0  0  0  0
  -10.4694   -1.3635   -0.0000 C   0  0  0  0  0  0  0  0  0  0  0  0
  -11.9041    0.6047   -0.0000 C   0  0  0  0  0  0  0  0  0  0  0  0
  -11.9160   -1.8141   -0.0000 N   0  0  0  0  0  0  0  0  0  0  0  0
  -12.8052   -0.6047   -0.0000 C   0  0  0  0  0  0  0  0  0  0  0  0
  -12.3902   -3.2250   -0.0000 S   0  0  0  0  0  0  0  0  0  0  0  0
  -13.8367   -2.7863   -0.0000 O   0  0  0  0  0  0  0  0  0  0  0  0
  -10.9674   -3.6519   -0.0000 O   0  0  0  0  0  0  0  0  0  0  0  0
  -12.8645   -4.6360   -0.0000 C   0  0  0  0  0  0  0  0  0  0  0  0
  -11.8804   -5.7268   -0.0000 C   0  0  0  0  0  0  0  0  0  0  0  0
  -14.3466   -4.9324   -0.0000 C   0  0  0  0  0  0  0  0  0  0  0  0
  -12.3428   -7.1377   -0.0000 C   0  0  0  0  0  0  0  0  0  0  0  0
  -14.8208   -6.3433   -0.0000 C   0  0  0  0  0  0  0  0  0  0  0  0
  -11.3468   -8.2404   -0.0000 N   0  0  0  0  0  0  0  0  0  0  0  0
  -13.8249   -7.4460   -0.0000 C   0  0  0  0  0  0  0  0  0  0  0  0
   -9.9003   -7.9084   -0.0000 O   0  0  0  0  0  0  0  0  0  0  0  0
  -11.8211   -9.6513   -0.0000 O   0  0  0  0  0  0  0  0  0  0  0  0
  1  2  1  0  0  0  0
  2  3  2  0  0  0  0
  2  4  1  0  0  0  0
  3  5  1  0  0  0  0
  4  6  2  0  0  0  0
  5  7  2  0  0  0  0
  6  8  1  0  0  0  0
  8  9  1  0  0  0  0
  9 10  2  0  0  0  0
  9 11  1  0  0  0  0
 11 12  2  0  0  0  0
 11 13  1  0  0  0  0
 12 14  1  0  0  0  0
 13 15  2  0  0  0  0
 14 16  2  0  0  0  0
 14 17  1  0  0  0  0
 16 18  1  0  0  0  0
 17 19  2  0  0  0  0
 18 20  1  0  0  0  0
 20 21  2  0  0  0  0
 20 22  2  0  0  0  0
 20 23  1  0  0  0  0
 23 24  2  0  0  0  0
 23 25  1  0  0  0  0
 24 26  1  0  0  0  0
 25 27  2  0  0  0  0
 26 28  1  0  0  0  0
 26 29  2  0  0  0  0
 28 30  2  0  0  0  0
 28 31  1  0  0  0  0
  6  7  1  0  0  0  0
 15 16  1  0  0  0  0
 18 19  1  0  0  0  0
 27 29  1  0  0  0  0
M  CHG  2  28   1  31  -1
M  END
>  <MolRegNo>
493966

>  <m>
=

>  <Value>
89

>  <Unit>
nM

>  <Type>
IC50

>  <Ligand Efficiency>


>  <Binding Efficiency>


>  <Surface Efficiency>


>  <Assay Index>
341535

>  <Assay Category>


>  <Assay Organism>
SARS coronavirus

>  <Target ID>
100499

>  <Target Name>
SARS coronavirus

>  <Target Organism>
SARS coronavirus

>  <Target Description>
Target is a complete organism

>  <Sequence Accession>


>  <Reference>
Bioorg. Med. Chem. Lett. 18 (20), 5684-5688 (2008)

>  <Pubmed ID>
18796354

>  <DOI>
10.1016/j.bmcl.2008.08.082

>  <InChI-Key>
LXKXHISGOOZAGB-UHFFFAOYSA-N

>  <Molecular Formula>
C20H12N3O6ClS

>  <Monoisotopic Mass>
457.013534

>  <Druglikeness>
-6.8583

$$$$
Compound 341
Actelion Java MolfileCreator 1.0

 27 27  0  0  1  0  0  0  0  0999 V2000
    0.0000   -0.0000   -0.0000 F   0  0  0  0  0  0  0  0  0  0  0  0
   -1.3134    0.7454   -0.0000 C   0  0  0  0  0  0  0  0  0  0  0  0
   -2.6149   -0.0000   -0.0000 C   0  0  0  0  0  0  0  0  0  0  0  0
   -2.6149   -1.4790   -0.0000 O   0  0  0  0  0  0  0  0  0  0  0  0
   -3.9165    0.7573   -0.0000 C   0  0  0  0  0  0  0  0  0  0  0  0
   -5.2298   -0.0000   -0.0000 N   0  0  0  0  0  0  0  0  0  0  0  0
   -3.9520    2.2600   -0.0000 C   0  0  0  0  0  0  0  0  0  0  0  0
   -6.5432    0.7573   -0.0000 C   0  0  0  0  0  0  0  0  0  0  0  0
   -2.6741    3.0172   -0.0000 C   0  0  0  0  0  0  0  0  0  0  0  0
   -6.5551    2.2600   -0.0000 O   0  0  0  0  0  0  0  0  0  0  0  0
   -7.8448    0.0237   -0.0000 C   0  0  0  0  0  0  0  0  0  0  0  0
   -1.3844    2.2836   -0.0000 O   0  0  0  0  0  0  0  0  0  0  0  0
   -2.6977    4.5199   -0.0000 O   0  0  0  0  0  0  0  0  0  0  0  0
   -9.1463    0.7691   -0.0000 N   0  0  0  0  0  0  0  0  0  0  0  0
   -7.8448   -1.4554   -0.0000 C   0  0  0  0  0  0  0  0  0  0  0  0
  -10.4479    0.0355   -0.0000 C   0  0  0  0  0  0  0  0  0  0  0  0
   -6.5551   -2.1890   -0.0000 C   0  0  0  0  0  0  0  0  0  0  0  0
   -9.1463   -2.1890   -0.0000 C   0  0  0  0  0  0  0  0  0  0  0  0
  -10.4597   -1.4435   -0.0000 O   0  0  0  0  0  0  0  0  0  0  0  0
  -11.7494    0.7928   -0.0000 O   0  0  0  0  0  0  0  0  0  0  0  0
  -13.0510    0.0473   -0.0000 C   0  0  0  0  0  0  0  0  0  0  0  0
  -14.3643    0.8046   -0.0000 C   0  0  0  0  0  0  0  0  0  0  0  0
  -14.3762    2.3191   -0.0000 C   0  0  0  0  0  0  0  0  0  0  0  0
  -15.6777    0.0710   -0.0000 C   0  0  0  0  0  0  0  0  0  0  0  0
  -15.6895    3.0764   -0.0000 C   0  0  0  0  0  0  0  0  0  0  0  0
  -16.9793    0.8283   -0.0000 C   0  0  0  0  0  0  0  0  0  0  0  0
  -16.9911    2.3428   -0.0000 C   0  0  0  0  0  0  0  0  0  0  0  0
  1  2  1  0  0  0  0
  2  3  1  0  0  0  0
  3  4  2  0  0  0  0
  3  5  1  0  0  0  0
  5  6  1  0  0  0  0
  5  7  1  0  0  0  0
  6  8  1  0  0  0  0
  7  9  1  0  0  0  0
  8 10  2  0  0  0  0
  8 11  1  0  0  0  0
  9 12  2  0  0  0  0
  9 13  1  0  0  0  0
 11 14  1  6  0  0  0
 11 15  1  0  0  0  0
 14 16  1  0  0  0  0
 15 17  1  0  0  0  0
 15 18  1  0  0  0  0
 16 19  2  0  0  0  0
 16 20  1  0  0  0  0
 20 21  1  0  0  0  0
 21 22  1  0  0  0  0
 22 23  2  0  0  0  0
 22 24  1  0  0  0  0
 23 25  1  0  0  0  0
 24 26  2  0  0  0  0
 25 27  2  0  0  0  0
 26 27  1  0  0  0  0
M  END
>  <MolRegNo>
29947

>  <m>
>

>  <Value>
1.0e5

>  <Unit>
nM

>  <Type>
EC50

>  <Ligand Efficiency>


>  <Binding Efficiency>


>  <Surface Efficiency>


>  <Assay Index>
256674

>  <Assay Category>


>  <Assay Organism>
SARS coronavirus

>  <Target ID>
100499

>  <Target Name>
SARS coronavirus

>  <Target Organism>
SARS coronavirus

>  <Target Description>
Target is a complete organism

>  <Sequence Accession>


>  <Reference>
J. Med. Chem. 49 (3), 1198-1201 (2006)

>  <Pubmed ID>
16451084

>  <DOI>
10.1021/jm0507678

>  <InChI-Key>
LYBWGROBJJXCJJ-VYIIXAMBSA-N

>  <Molecular Formula>
C18H23N2O6F

>  <Monoisotopic Mass>
382.154016

>  <Druglikeness>
-16.036

$$$$
Compound 342
Actelion Java MolfileCreator 1.0

 27 27  0  0  1  0  0  0  0  0999 V2000
    0.0000   -0.0000   -0.0000 F   0  0  0  0  0  0  0  0  0  0  0  0
   -1.3134    0.7454   -0.0000 C   0  0  0  0  0  0  0  0  0  0  0  0
   -2.6149   -0.0000   -0.0000 C   0  0  0  0  0  0  0  0  0  0  0  0
   -2.6149   -1.4790   -0.0000 O   0  0  0  0  0  0  0  0  0  0  0  0
   -3.9165    0.7573   -0.0000 C   0  0  0  0  0  0  0  0  0  0  0  0
   -5.2298   -0.0000   -0.0000 N   0  0  0  0  0  0  0  0  0  0  0  0
   -3.9520    2.2600   -0.0000 C   0  0  0  0  0  0  0  0  0  0  0  0
   -6.5432    0.7573   -0.0000 C   0  0  0  0  0  0  0  0  0  0  0  0
   -2.6741    3.0172   -0.0000 C   0  0  0  0  0  0  0  0  0  0  0  0
   -6.5551    2.2600   -0.0000 O   0  0  0  0  0  0  0  0  0  0  0  0
   -7.8448    0.0237   -0.0000 C   0  0  0  0  0  0  0  0  0  0  0  0
   -1.3844    2.2836   -0.0000 O   0  0  0  0  0  0  0  0  0  0  0  0
   -2.6977    4.5199   -0.0000 O   0  0  0  0  0  0  0  0  0  0  0  0
   -9.1463    0.7691   -0.0000 N   0  0  0  0  0  0  0  0  0  0  0  0
   -7.8448   -1.4554   -0.0000 C   0  0  0  0  0  0  0  0  0  0  0  0
  -10.4479    0.0355   -0.0000 C   0  0  0  0  0  0  0  0  0  0  0  0
   -6.5551   -2.1890   -0.0000 C   0  0  0  0  0  0  0  0  0  0  0  0
   -9.1463   -2.1890   -0.0000 C   0  0  0  0  0  0  0  0  0  0  0  0
  -10.4597   -1.4435   -0.0000 O   0  0  0  0  0  0  0  0  0  0  0  0
  -11.7494    0.7928   -0.0000 O   0  0  0  0  0  0  0  0  0  0  0  0
  -13.0510    0.0473   -0.0000 C   0  0  0  0  0  0  0  0  0  0  0  0
  -14.3643    0.8046   -0.0000 C   0  0  0  0  0  0  0  0  0  0  0  0
  -14.3762    2.3191   -0.0000 C   0  0  0  0  0  0  0  0  0  0  0  0
  -15.6777    0.0710   -0.0000 C   0  0  0  0  0  0  0  0  0  0  0  0
  -15.6895    3.0764   -0.0000 C   0  0  0  0  0  0  0  0  0  0  0  0
  -16.9793    0.8283   -0.0000 C   0  0  0  0  0  0  0  0  0  0  0  0
  -16.9911    2.3428   -0.0000 C   0  0  0  0  0  0  0  0  0  0  0  0
  1  2  1  0  0  0  0
  2  3  1  0  0  0  0
  3  4  2  0  0  0  0
  3  5  1  0  0  0  0
  5  6  1  0  0  0  0
  5  7  1  0  0  0  0
  6  8  1  0  0  0  0
  7  9  1  0  0  0  0
  8 10  2  0  0  0  0
  8 11  1  0  0  0  0
  9 12  2  0  0  0  0
  9 13  1  0  0  0  0
 11 14  1  6  0  0  0
 11 15  1  0  0  0  0
 14 16  1  0  0  0  0
 15 17  1  0  0  0  0
 15 18  1  0  0  0  0
 16 19  2  0  0  0  0
 16 20  1  0  0  0  0
 20 21  1  0  0  0  0
 21 22  1  0  0  0  0
 22 23  2  0  0  0  0
 22 24  1  0  0  0  0
 23 25  1  0  0  0  0
 24 26  2  0  0  0  0
 25 27  2  0  0  0  0
 26 27  1  0  0  0  0
M  END
>  <MolRegNo>
29947

>  <m>
>

>  <Value>
1.0e5

>  <Unit>
nM

>  <Type>
EC50

>  <Ligand Efficiency>


>  <Binding Efficiency>


>  <Surface Efficiency>


>  <Assay Index>
256675

>  <Assay Category>


>  <Assay Organism>
SARS coronavirus

>  <Target ID>
100499

>  <Target Name>
SARS coronavirus

>  <Target Organism>
SARS coronavirus

>  <Target Description>
Target is a complete organism

>  <Sequence Accession>


>  <Reference>
J. Med. Chem. 49 (3), 1198-1201 (2006)

>  <Pubmed ID>
16451084

>  <DOI>
10.1021/jm0507678

>  <InChI-Key>
LYBWGROBJJXCJJ-VYIIXAMBSA-N

>  <Molecular Formula>
C18H23N2O6F

>  <Monoisotopic Mass>
382.154016

>  <Druglikeness>
-16.036

$$$$
Compound 343
Actelion Java MolfileCreator 1.0

 27 27  0  0  1  0  0  0  0  0999 V2000
    0.0000   -0.0000   -0.0000 F   0  0  0  0  0  0  0  0  0  0  0  0
   -1.3134    0.7454   -0.0000 C   0  0  0  0  0  0  0  0  0  0  0  0
   -2.6149   -0.0000   -0.0000 C   0  0  0  0  0  0  0  0  0  0  0  0
   -2.6149   -1.4790   -0.0000 O   0  0  0  0  0  0  0  0  0  0  0  0
   -3.9165    0.7573   -0.0000 C   0  0  0  0  0  0  0  0  0  0  0  0
   -5.2298   -0.0000   -0.0000 N   0  0  0  0  0  0  0  0  0  0  0  0
   -3.9520    2.2600   -0.0000 C   0  0  0  0  0  0  0  0  0  0  0  0
   -6.5432    0.7573   -0.0000 C   0  0  0  0  0  0  0  0  0  0  0  0
   -2.6741    3.0172   -0.0000 C   0  0  0  0  0  0  0  0  0  0  0  0
   -6.5551    2.2600   -0.0000 O   0  0  0  0  0  0  0  0  0  0  0  0
   -7.8448    0.0237   -0.0000 C   0  0  0  0  0  0  0  0  0  0  0  0
   -1.3844    2.2836   -0.0000 O   0  0  0  0  0  0  0  0  0  0  0  0
   -2.6977    4.5199   -0.0000 O   0  0  0  0  0  0  0  0  0  0  0  0
   -9.1463    0.7691   -0.0000 N   0  0  0  0  0  0  0  0  0  0  0  0
   -7.8448   -1.4554   -0.0000 C   0  0  0  0  0  0  0  0  0  0  0  0
  -10.4479    0.0355   -0.0000 C   0  0  0  0  0  0  0  0  0  0  0  0
   -6.5551   -2.1890   -0.0000 C   0  0  0  0  0  0  0  0  0  0  0  0
   -9.1463   -2.1890   -0.0000 C   0  0  0  0  0  0  0  0  0  0  0  0
  -10.4597   -1.4435   -0.0000 O   0  0  0  0  0  0  0  0  0  0  0  0
  -11.7494    0.7928   -0.0000 O   0  0  0  0  0  0  0  0  0  0  0  0
  -13.0510    0.0473   -0.0000 C   0  0  0  0  0  0  0  0  0  0  0  0
  -14.3643    0.8046   -0.0000 C   0  0  0  0  0  0  0  0  0  0  0  0
  -14.3762    2.3191   -0.0000 C   0  0  0  0  0  0  0  0  0  0  0  0
  -15.6777    0.0710   -0.0000 C   0  0  0  0  0  0  0  0  0  0  0  0
  -15.6895    3.0764   -0.0000 C   0  0  0  0  0  0  0  0  0  0  0  0
  -16.9793    0.8283   -0.0000 C   0  0  0  0  0  0  0  0  0  0  0  0
  -16.9911    2.3428   -0.0000 C   0  0  0  0  0  0  0  0  0  0  0  0
  1  2  1  0  0  0  0
  2  3  1  0  0  0  0
  3  4  2  0  0  0  0
  3  5  1  0  0  0  0
  5  6  1  0  0  0  0
  5  7  1  0  0  0  0
  6  8  1  0  0  0  0
  7  9  1  0  0  0  0
  8 10  2  0  0  0  0
  8 11  1  0  0  0  0
  9 12  2  0  0  0  0
  9 13  1  0  0  0  0
 11 14  1  6  0  0  0
 11 15  1  0  0  0  0
 14 16  1  0  0  0  0
 15 17  1  0  0  0  0
 15 18  1  0  0  0  0
 16 19  2  0  0  0  0
 16 20  1  0  0  0  0
 20 21  1  0  0  0  0
 21 22  1  0  0  0  0
 22 23  2  0  0  0  0
 22 24  1  0  0  0  0
 23 25  1  0  0  0  0
 24 26  2  0  0  0  0
 25 27  2  0  0  0  0
 26 27  1  0  0  0  0
M  END
>  <MolRegNo>
29947

>  <m>
>

>  <Value>
1.0e5

>  <Unit>
nM

>  <Type>
EC50

>  <Ligand Efficiency>


>  <Binding Efficiency>


>  <Surface Efficiency>


>  <Assay Index>
256676

>  <Assay Category>


>  <Assay Organism>
SARS coronavirus

>  <Target ID>
100499

>  <Target Name>
SARS coronavirus

>  <Target Organism>
SARS coronavirus

>  <Target Description>
Target is a complete organism

>  <Sequence Accession>


>  <Reference>
J. Med. Chem. 49 (3), 1198-1201 (2006)

>  <Pubmed ID>
16451084

>  <DOI>
10.1021/jm0507678

>  <InChI-Key>
LYBWGROBJJXCJJ-VYIIXAMBSA-N

>  <Molecular Formula>
C18H23N2O6F

>  <Monoisotopic Mass>
382.154016

>  <Druglikeness>
-16.036

$$$$
Compound 344
Actelion Java MolfileCreator 1.0

 22 25  0  0  0  0  0  0  0  0999 V2000
    0.0000   -0.0000   -0.0000 I   0  0  0  0  0  0  0  0  0  0  0  0
    1.2929   -0.7250   -0.0000 C   0  0  0  0  0  0  0  0  0  0  0  0
    2.5859    0.0242   -0.0000 C   0  0  0  0  0  0  0  0  0  0  0  0
    1.2809   -2.2475   -0.0000 C   0  0  0  0  0  0  0  0  0  0  0  0
    3.8788   -0.7008   -0.0000 C   0  0  0  0  0  0  0  0  0  0  0  0
    2.5738   -2.9967   -0.0000 C   0  0  0  0  0  0  0  0  0  0  0  0
    5.3047   -0.2296   -0.0000 C   0  0  0  0  0  0  0  0  0  0  0  0
    3.8667   -2.2113   -0.0000 C   0  0  0  0  0  0  0  0  0  0  0  0
    5.7518    1.2204   -0.0000 O   0  0  0  0  0  0  0  0  0  0  0  0
    6.1868   -1.4500   -0.0000 C   0  0  0  0  0  0  0  0  0  0  0  0
    5.2926   -2.6705   -0.0000 N   0  0  0  0  0  0  0  0  0  0  0  0
    7.6851   -1.4379   -0.0000 O   0  0  0  0  0  0  0  0  0  0  0  0
    5.7518   -4.0963   -0.0000 C   0  0  0  0  0  0  0  0  0  0  0  0
    7.2139   -4.3984   -0.0000 C   0  0  0  0  0  0  0  0  0  0  0  0
    8.3256   -3.3592   -0.0000 S   0  0  0  0  0  0  0  0  0  0  0  0
    7.8181   -5.7639   -0.0000 C   0  0  0  0  0  0  0  0  0  0  0  0
    9.6185   -4.1084   -0.0000 C   0  0  0  0  0  0  0  0  0  0  0  0
    9.2923   -5.5705   -0.0000 C   0  0  0  0  0  0  0  0  0  0  0  0
   11.0323   -3.6251   -0.0000 C   0  0  0  0  0  0  0  0  0  0  0  0
   10.4039   -6.5614   -0.0000 C   0  0  0  0  0  0  0  0  0  0  0  0
   12.1440   -4.6159   -0.0000 C   0  0  0  0  0  0  0  0  0  0  0  0
   11.8298   -6.0901   -0.0000 C   0  0  0  0  0  0  0  0  0  0  0  0
  1  2  1  0  0  0  0
  2  3  2  0  0  0  0
  2  4  1  0  0  0  0
  3  5  1  0  0  0  0
  4  6  2  0  0  0  0
  5  7  1  0  0  0  0
  5  8  2  0  0  0  0
  7  9  2  0  0  0  0
  7 10  1  0  0  0  0
  8 11  1  0  0  0  0
 10 12  2  0  0  0  0
 11 13  1  0  0  0  0
 13 14  1  0  0  0  0
 14 15  1  0  0  0  0
 14 16  2  0  0  0  0
 15 17  1  0  0  0  0
 16 18  1  0  0  0  0
 17 19  1  0  0  0  0
 18 20  1  0  0  0  0
 19 21  2  0  0  0  0
 20 22  2  0  0  0  0
  6  8  1  0  0  0  0
 10 11  1  0  0  0  0
 17 18  2  0  0  0  0
 21 22  1  0  0  0  0
M  END
>  <MolRegNo>
317118

>  <m>
=

>  <Value>
950

>  <Unit>
nM

>  <Type>
IC50

>  <Ligand Efficiency>
0.37

>  <Binding Efficiency>
14.36

>  <Surface Efficiency>
16.11

>  <Assay Index>
238671

>  <Assay Category>


>  <Assay Organism>
SARS coronavirus

>  <Target ID>
20012

>  <Target Name>
SARS coronavirus 3C-like proteinase

>  <Target Organism>
SARS coronavirus

>  <Target Description>
Target is a single protein chain

>  <Sequence Accession>
P0C6U8

>  <Reference>
Bioorg. Med. Chem. Lett. 15 (12), 3058-3062 (2005)

>  <Pubmed ID>
15896959

>  <DOI>
10.1016/j.bmcl.2005.04.027

>  <InChI-Key>
MAYSJMBSILUGEG-UHFFFAOYSA-N

>  <Molecular Formula>
C17H10NO2IS

>  <Monoisotopic Mass>
418.947697

>  <Druglikeness>
1.6739

$$$$
Compound 345
Actelion Java MolfileCreator 1.0

 32 34  0  0  0  0  0  0  0  0999 V2000
    0.0000   -0.0000   -0.0000 S   0  0  0  0  0  0  0  0  0  0  0  0
    0.7285    1.3136   -0.0000 O   0  0  0  0  0  0  0  0  0  0  0  0
   -0.7643   -1.3017   -0.0000 O   0  0  0  0  0  0  0  0  0  0  0  0
   -1.3256    0.7643   -0.0000 N   0  0  0  0  0  0  0  0  0  0  0  0
    1.3017   -0.7404   -0.0000 C   0  0  0  0  0  0  0  0  0  0  0  0
    1.2898   -2.2451   -0.0000 C   0  0  0  0  0  0  0  0  0  0  0  0
    2.5795    0.0358   -0.0000 C   0  0  0  0  0  0  0  0  0  0  0  0
    2.5795   -2.9855   -0.0000 C   0  0  0  0  0  0  0  0  0  0  0  0
    3.8812   -0.7046   -0.0000 C   0  0  0  0  0  0  0  0  0  0  0  0
    3.8812   -2.2212   -0.0000 C   0  0  0  0  0  0  0  0  0  0  0  0
    5.1710   -2.9617   -0.0000 N   0  0  0  0  0  0  0  0  0  0  0  0
    6.4727   -2.1974   -0.0000 C   0  0  0  0  0  0  0  0  0  0  0  0
    6.4607   -0.6807   -0.0000 O   0  0  0  0  0  0  0  0  0  0  0  0
    7.7624   -2.9378   -0.0000 C   0  0  0  0  0  0  0  0  0  0  0  0
    9.0641   -2.1615   -0.0000 S   0  0  0  0  0  0  0  0  0  0  0  0
   10.3658   -2.9020   -0.0000 C   0  0  0  0  0  0  0  0  0  0  0  0
   11.6436   -2.1257   -0.0000 N   0  0  0  0  0  0  0  0  0  0  0  0
   10.3419   -4.3947   -0.0000 N   0  0  0  0  0  0  0  0  0  0  0  0
   12.9453   -2.8661   -0.0000 C   0  0  0  0  0  0  0  0  0  0  0  0
   11.6436   -5.1351   -0.0000 C   0  0  0  0  0  0  0  0  0  0  0  0
   14.2351   -2.0899   -0.0000 O   0  0  0  0  0  0  0  0  0  0  0  0
   12.9334   -4.3708   -0.0000 C   0  0  0  0  0  0  0  0  0  0  0  0
   11.6317   -6.6279   -0.0000 C   0  0  0  0  0  0  0  0  0  0  0  0
   14.2351   -5.1113   -0.0000 C   0  0  0  0  0  0  0  0  0  0  0  0
   12.9215   -7.3683   -0.0000 C   0  0  0  0  0  0  0  0  0  0  0  0
   10.3061   -7.3683   -0.0000 C   0  0  0  0  0  0  0  0  0  0  0  0
   15.5129   -5.8517   -0.0000 N   0  0  0  0  0  0  0  0  0  0  0  0
   12.9095   -8.8611   -0.0000 C   0  0  0  0  0  0  0  0  0  0  0  0
   10.2942   -8.8611   -0.0000 C   0  0  0  0  0  0  0  0  0  0  0  0
   14.1993   -9.6015   -0.0000 O   0  0  0  0  0  0  0  0  0  0  0  0
   11.5839   -9.6015   -0.0000 C   0  0  0  0  0  0  0  0  0  0  0  0
   14.1993  -11.0943   -0.0000 C   0  0  0  0  0  0  0  0  0  0  0  0
  1  2  2  0  0  0  0
  1  3  2  0  0  0  0
  1  4  1  0  0  0  0
  1  5  1  0  0  0  0
  5  6  2  0  0  0  0
  5  7  1  0  0  0  0
  6  8  1  0  0  0  0
  7  9  2  0  0  0  0
  8 10  2  0  0  0  0
 10 11  1  0  0  0  0
 11 12  1  0  0  0  0
 12 13  2  0  0  0  0
 12 14  1  0  0  0  0
 14 15  1  0  0  0  0
 15 16  1  0  0  0  0
 16 17  2  0  0  0  0
 16 18  1  0  0  0  0
 17 19  1  0  0  0  0
 18 20  2  0  0  0  0
 19 21  1  0  0  0  0
 19 22  2  0  0  0  0
 20 23  1  0  0  0  0
 22 24  1  0  0  0  0
 23 25  2  0  0  0  0
 23 26  1  0  0  0  0
 24 27  3  0  0  0  0
 25 28  1  0  0  0  0
 26 29  2  0  0  0  0
 28 30  1  0  0  0  0
 28 31  2  0  0  0  0
 30 32  1  0  0  0  0
  9 10  1  0  0  0  0
 20 22  1  0  0  0  0
 29 31  1  0  0  0  0
M  END
>  <MolRegNo>
348710

>  <m>
=

>  <Value>
2.4547e13

>  <Unit>
nM

>  <Type>
IC50

>  <Ligand Efficiency>


>  <Binding Efficiency>


>  <Surface Efficiency>


>  <Assay Index>
262926

>  <Assay Category>


>  <Assay Organism>
SARS coronavirus

>  <Target ID>
20012

>  <Target Name>
SARS coronavirus 3C-like proteinase

>  <Target Organism>
SARS coronavirus

>  <Target Description>
Target is a single protein chain

>  <Sequence Accession>
P0C6U8

>  <Reference>
J. Med. Chem. 49 (12), 3485-3495 (2006)

>  <Pubmed ID>
16759091

>  <DOI>
10.1021/jm050852f

>  <InChI-Key>
MFBIUOFKXQKEGQ-UHFFFAOYSA-N

>  <Molecular Formula>
C20H17N5O5S2

>  <Monoisotopic Mass>
471.067110

>  <Druglikeness>
-0.17243

$$$$
Compound 346
Actelion Java MolfileCreator 1.0

 32 34  0  0  0  0  0  0  0  0999 V2000
    0.0000   -0.0000   -0.0000 S   0  0  0  0  0  0  0  0  0  0  0  0
    0.7285    1.3136   -0.0000 O   0  0  0  0  0  0  0  0  0  0  0  0
   -0.7643   -1.3017   -0.0000 O   0  0  0  0  0  0  0  0  0  0  0  0
   -1.3256    0.7643   -0.0000 N   0  0  0  0  0  0  0  0  0  0  0  0
    1.3017   -0.7404   -0.0000 C   0  0  0  0  0  0  0  0  0  0  0  0
    1.2898   -2.2451   -0.0000 C   0  0  0  0  0  0  0  0  0  0  0  0
    2.5795    0.0358   -0.0000 C   0  0  0  0  0  0  0  0  0  0  0  0
    2.5795   -2.9855   -0.0000 C   0  0  0  0  0  0  0  0  0  0  0  0
    3.8812   -0.7046   -0.0000 C   0  0  0  0  0  0  0  0  0  0  0  0
    3.8812   -2.2212   -0.0000 C   0  0  0  0  0  0  0  0  0  0  0  0
    5.1710   -2.9617   -0.0000 N   0  0  0  0  0  0  0  0  0  0  0  0
    6.4727   -2.1974   -0.0000 C   0  0  0  0  0  0  0  0  0  0  0  0
    6.4607   -0.6807   -0.0000 O   0  0  0  0  0  0  0  0  0  0  0  0
    7.7624   -2.9378   -0.0000 C   0  0  0  0  0  0  0  0  0  0  0  0
    9.0641   -2.1615   -0.0000 S   0  0  0  0  0  0  0  0  0  0  0  0
   10.3658   -2.9020   -0.0000 C   0  0  0  0  0  0  0  0  0  0  0  0
   11.6436   -2.1257   -0.0000 N   0  0  0  0  0  0  0  0  0  0  0  0
   10.3419   -4.3947   -0.0000 N   0  0  0  0  0  0  0  0  0  0  0  0
   12.9453   -2.8661   -0.0000 C   0  0  0  0  0  0  0  0  0  0  0  0
   11.6436   -5.1351   -0.0000 C   0  0  0  0  0  0  0  0  0  0  0  0
   14.2351   -2.0899   -0.0000 O   0  0  0  0  0  0  0  0  0  0  0  0
   12.9334   -4.3708   -0.0000 C   0  0  0  0  0  0  0  0  0  0  0  0
   11.6317   -6.6279   -0.0000 C   0  0  0  0  0  0  0  0  0  0  0  0
   14.2351   -5.1113   -0.0000 C   0  0  0  0  0  0  0  0  0  0  0  0
   12.9215   -7.3683   -0.0000 C   0  0  0  0  0  0  0  0  0  0  0  0
   10.3061   -7.3683   -0.0000 C   0  0  0  0  0  0  0  0  0  0  0  0
   15.5129   -5.8517   -0.0000 N   0  0  0  0  0  0  0  0  0  0  0  0
   12.9095   -8.8611   -0.0000 C   0  0  0  0  0  0  0  0  0  0  0  0
   10.2942   -8.8611   -0.0000 C   0  0  0  0  0  0  0  0  0  0  0  0
   14.1993   -9.6015   -0.0000 O   0  0  0  0  0  0  0  0  0  0  0  0
   11.5839   -9.6015   -0.0000 C   0  0  0  0  0  0  0  0  0  0  0  0
   14.1993  -11.0943   -0.0000 C   0  0  0  0  0  0  0  0  0  0  0  0
  1  2  2  0  0  0  0
  1  3  2  0  0  0  0
  1  4  1  0  0  0  0
  1  5  1  0  0  0  0
  5  6  2  0  0  0  0
  5  7  1  0  0  0  0
  6  8  1  0  0  0  0
  7  9  2  0  0  0  0
  8 10  2  0  0  0  0
 10 11  1  0  0  0  0
 11 12  1  0  0  0  0
 12 13  2  0  0  0  0
 12 14  1  0  0  0  0
 14 15  1  0  0  0  0
 15 16  1  0  0  0  0
 16 17  2  0  0  0  0
 16 18  1  0  0  0  0
 17 19  1  0  0  0  0
 18 20  2  0  0  0  0
 19 21  1  0  0  0  0
 19 22  2  0  0  0  0
 20 23  1  0  0  0  0
 22 24  1  0  0  0  0
 23 25  2  0  0  0  0
 23 26  1  0  0  0  0
 24 27  3  0  0  0  0
 25 28  1  0  0  0  0
 26 29  2  0  0  0  0
 28 30  1  0  0  0  0
 28 31  2  0  0  0  0
 30 32  1  0  0  0  0
  9 10  1  0  0  0  0
 20 22  1  0  0  0  0
 29 31  1  0  0  0  0
M  END
>  <MolRegNo>
348710

>  <m>
=

>  <Value>
40000

>  <Unit>
nM

>  <Type>
IC50

>  <Ligand Efficiency>
0.19

>  <Binding Efficiency>
9.33

>  <Surface Efficiency>
2.61

>  <Assay Index>
262926

>  <Assay Category>


>  <Assay Organism>
SARS coronavirus

>  <Target ID>
20012

>  <Target Name>
SARS coronavirus 3C-like proteinase

>  <Target Organism>
SARS coronavirus

>  <Target Description>
Target is a single protein chain

>  <Sequence Accession>
P0C6U8

>  <Reference>
J. Med. Chem. 49 (12), 3485-3495 (2006)

>  <Pubmed ID>
16759091

>  <DOI>
10.1021/jm050852f

>  <InChI-Key>
MFBIUOFKXQKEGQ-UHFFFAOYSA-N

>  <Molecular Formula>
C20H17N5O5S2

>  <Monoisotopic Mass>
471.067110

>  <Druglikeness>
-0.17243

$$$$
Compound 347
Actelion Java MolfileCreator 1.0

 17 18  0  0  1  0  0  0  0  0999 V2000
    0.0000   -0.0000   -0.0000 O   0  0  0  0  0  0  0  0  0  0  0  0
   -1.0939   -1.0233   -0.0000 C   0  0  0  0  0  0  0  0  0  0  0  0
   -0.7528   -2.4700   -0.0000 N   0  0  0  0  0  0  0  0  0  0  0  0
   -2.5406   -0.5881   -0.0000 C   0  0  0  0  0  0  0  0  0  0  0  0
   -3.0581    0.8351   -0.0000 N   0  0  0  0  0  0  0  0  0  0  0  0
   -3.7403   -1.4820   -0.0000 C   0  0  0  0  0  0  0  0  0  0  0  0
   -4.5636    0.8116   -0.0000 N   0  0  0  0  0  0  0  0  0  0  0  0
   -4.9871   -0.6234   -0.0000 N   0  0  0  0  0  0  0  0  0  0  0  0
   -6.3985   -1.1056   -0.0000 C   0  0  0  0  0  0  0  0  0  0  0  0
   -7.6453   -0.2470   -0.0000 C   0  0  0  0  0  0  0  0  0  0  0  0
   -6.8337   -2.5288   -0.0000 C   0  0  0  0  0  0  0  0  0  0  0  0
   -8.8450   -1.1527   -0.0000 C   0  0  0  0  0  0  0  0  0  0  0  0
   -5.9398   -3.6933   -0.0000 O   0  0  0  0  0  0  0  0  0  0  0  0
   -8.3392   -2.5523   -0.0000 C   0  0  0  0  0  0  0  0  0  0  0  0
  -10.2917   -0.7175   -0.0000 C   0  0  0  0  0  0  0  0  0  0  0  0
   -9.1979   -3.7756   -0.0000 O   0  0  0  0  0  0  0  0  0  0  0  0
  -10.6563    0.7528   -0.0000 O   0  0  0  0  0  0  0  0  0  0  0  0
  1  2  2  0  0  0  0
  2  3  1  0  0  0  0
  2  4  1  0  0  0  0
  4  5  1  0  0  0  0
  4  6  2  0  0  0  0
  5  7  2  0  0  0  0
  6  8  1  0  0  0  0
  9  8  1  1  0  0  0
  9 10  1  0  0  0  0
  9 11  1  0  0  0  0
 10 12  2  0  0  0  0
 11 13  1  6  0  0  0
 11 14  1  0  0  0  0
 12 15  1  0  0  0  0
 14 16  1  6  0  0  0
 15 17  1  0  0  0  0
  7  8  1  0  0  0  0
 12 14  1  0  0  0  0
M  END
>  <MolRegNo>
337910

>  <m>
=

>  <Value>
47000

>  <Unit>
nM

>  <Type>
EC50

>  <Ligand Efficiency>


>  <Binding Efficiency>


>  <Surface Efficiency>


>  <Assay Index>
256629

>  <Assay Category>


>  <Assay Organism>
SARS coronavirus

>  <Target ID>
100499

>  <Target Name>
SARS coronavirus

>  <Target Organism>
SARS coronavirus

>  <Target Description>
Target is a complete organism

>  <Sequence Accession>


>  <Reference>
J. Med. Chem. 49 (3), 1140-1148 (2006)

>  <Pubmed ID>
16451078

>  <DOI>
10.1021/jm0509750

>  <InChI-Key>
MHXCOGJMZNSJBR-CSMHCCOUSA-N

>  <Molecular Formula>
C9H12N4O4

>  <Monoisotopic Mass>
240.085856

>  <Druglikeness>
-1.4923

$$$$
Compound 348
Actelion Java MolfileCreator 1.0

 17 18  0  0  1  0  0  0  0  0999 V2000
    0.0000   -0.0000   -0.0000 O   0  0  0  0  0  0  0  0  0  0  0  0
   -1.0939   -1.0233   -0.0000 C   0  0  0  0  0  0  0  0  0  0  0  0
   -0.7528   -2.4700   -0.0000 N   0  0  0  0  0  0  0  0  0  0  0  0
   -2.5406   -0.5881   -0.0000 C   0  0  0  0  0  0  0  0  0  0  0  0
   -3.0581    0.8351   -0.0000 N   0  0  0  0  0  0  0  0  0  0  0  0
   -3.7403   -1.4820   -0.0000 C   0  0  0  0  0  0  0  0  0  0  0  0
   -4.5636    0.8116   -0.0000 N   0  0  0  0  0  0  0  0  0  0  0  0
   -4.9871   -0.6234   -0.0000 N   0  0  0  0  0  0  0  0  0  0  0  0
   -6.3985   -1.1056   -0.0000 C   0  0  0  0  0  0  0  0  0  0  0  0
   -7.6453   -0.2470   -0.0000 C   0  0  0  0  0  0  0  0  0  0  0  0
   -6.8337   -2.5288   -0.0000 C   0  0  0  0  0  0  0  0  0  0  0  0
   -8.8450   -1.1527   -0.0000 C   0  0  0  0  0  0  0  0  0  0  0  0
   -5.9398   -3.6933   -0.0000 O   0  0  0  0  0  0  0  0  0  0  0  0
   -8.3392   -2.5523   -0.0000 C   0  0  0  0  0  0  0  0  0  0  0  0
  -10.2917   -0.7175   -0.0000 C   0  0  0  0  0  0  0  0  0  0  0  0
   -9.1979   -3.7756   -0.0000 O   0  0  0  0  0  0  0  0  0  0  0  0
  -10.6563    0.7528   -0.0000 O   0  0  0  0  0  0  0  0  0  0  0  0
  1  2  2  0  0  0  0
  2  3  1  0  0  0  0
  2  4  1  0  0  0  0
  4  5  1  0  0  0  0
  4  6  2  0  0  0  0
  5  7  2  0  0  0  0
  6  8  1  0  0  0  0
  9  8  1  1  0  0  0
  9 10  1  0  0  0  0
  9 11  1  0  0  0  0
 10 12  2  0  0  0  0
 11 13  1  6  0  0  0
 11 14  1  0  0  0  0
 12 15  1  0  0  0  0
 14 16  1  6  0  0  0
 15 17  1  0  0  0  0
  7  8  1  0  0  0  0
 12 14  1  0  0  0  0
M  END
>  <MolRegNo>
337910

>  <m>
>

>  <Value>
1.0e5

>  <Unit>
nM

>  <Type>
IC50

>  <Ligand Efficiency>


>  <Binding Efficiency>


>  <Surface Efficiency>


>  <Assay Index>
256635

>  <Assay Category>


>  <Assay Organism>
SARS coronavirus

>  <Target ID>
100499

>  <Target Name>
SARS coronavirus

>  <Target Organism>
SARS coronavirus

>  <Target Description>
Target is a complete organism

>  <Sequence Accession>


>  <Reference>
J. Med. Chem. 49 (3), 1140-1148 (2006)

>  <Pubmed ID>
16451078

>  <DOI>
10.1021/jm0509750

>  <InChI-Key>
MHXCOGJMZNSJBR-CSMHCCOUSA-N

>  <Molecular Formula>
C9H12N4O4

>  <Monoisotopic Mass>
240.085856

>  <Druglikeness>
-1.4923

$$$$
Compound 349
Actelion Java MolfileCreator 1.0

 17 18  0  0  1  0  0  0  0  0999 V2000
    0.0000   -0.0000   -0.0000 O   0  0  0  0  0  0  0  0  0  0  0  0
   -1.0939   -1.0233   -0.0000 C   0  0  0  0  0  0  0  0  0  0  0  0
   -0.7528   -2.4700   -0.0000 N   0  0  0  0  0  0  0  0  0  0  0  0
   -2.5406   -0.5881   -0.0000 C   0  0  0  0  0  0  0  0  0  0  0  0
   -3.0581    0.8351   -0.0000 N   0  0  0  0  0  0  0  0  0  0  0  0
   -3.7403   -1.4820   -0.0000 C   0  0  0  0  0  0  0  0  0  0  0  0
   -4.5636    0.8116   -0.0000 N   0  0  0  0  0  0  0  0  0  0  0  0
   -4.9871   -0.6234   -0.0000 N   0  0  0  0  0  0  0  0  0  0  0  0
   -6.3985   -1.1056   -0.0000 C   0  0  0  0  0  0  0  0  0  0  0  0
   -7.6453   -0.2470   -0.0000 C   0  0  0  0  0  0  0  0  0  0  0  0
   -6.8337   -2.5288   -0.0000 C   0  0  0  0  0  0  0  0  0  0  0  0
   -8.8450   -1.1527   -0.0000 C   0  0  0  0  0  0  0  0  0  0  0  0
   -5.9398   -3.6933   -0.0000 O   0  0  0  0  0  0  0  0  0  0  0  0
   -8.3392   -2.5523   -0.0000 C   0  0  0  0  0  0  0  0  0  0  0  0
  -10.2917   -0.7175   -0.0000 C   0  0  0  0  0  0  0  0  0  0  0  0
   -9.1979   -3.7756   -0.0000 O   0  0  0  0  0  0  0  0  0  0  0  0
  -10.6563    0.7528   -0.0000 O   0  0  0  0  0  0  0  0  0  0  0  0
  1  2  2  0  0  0  0
  2  3  1  0  0  0  0
  2  4  1  0  0  0  0
  4  5  1  0  0  0  0
  4  6  2  0  0  0  0
  5  7  2  0  0  0  0
  6  8  1  0  0  0  0
  9  8  1  1  0  0  0
  9 10  1  0  0  0  0
  9 11  1  0  0  0  0
 10 12  2  0  0  0  0
 11 13  1  6  0  0  0
 11 14  1  0  0  0  0
 12 15  1  0  0  0  0
 14 16  1  6  0  0  0
 15 17  1  0  0  0  0
  7  8  1  0  0  0  0
 12 14  1  0  0  0  0
M  END
>  <MolRegNo>
337910

>  <m>
>

>  <Value>
2.1

>  <Unit>
-

>  <Type>
Selectivity index

>  <Ligand Efficiency>


>  <Binding Efficiency>


>  <Surface Efficiency>


>  <Assay Index>
256641

>  <Assay Category>


>  <Assay Organism>
SARS coronavirus

>  <Target ID>
100499

>  <Target Name>
SARS coronavirus

>  <Target Organism>
SARS coronavirus

>  <Target Description>
Target is a complete organism

>  <Sequence Accession>


>  <Reference>
J. Med. Chem. 49 (3), 1140-1148 (2006)

>  <Pubmed ID>
16451078

>  <DOI>
10.1021/jm0509750

>  <InChI-Key>
MHXCOGJMZNSJBR-CSMHCCOUSA-N

>  <Molecular Formula>
C9H12N4O4

>  <Monoisotopic Mass>
240.085856

>  <Druglikeness>
-1.4923

$$$$
Compound 350
Actelion Java MolfileCreator 1.0

 30 33  0  0  0  0  0  0  0  0999 V2000
    0.0000   -0.0000   -0.0000 O   0  0  0  0  0  0  0  0  0  0  0  0
   -0.0119   -1.4882   -0.0000 C   0  0  0  0  0  0  0  0  0  0  0  0
    1.2739   -2.2263   -0.0000 N   0  0  0  0  0  0  0  0  0  0  0  0
   -1.3215   -2.2263   -0.0000 C   0  0  0  0  0  0  0  0  0  0  0  0
    2.5596   -1.4643   -0.0000 C   0  0  0  0  0  0  0  0  0  0  0  0
   -1.3334   -3.7144   -0.0000 C   0  0  0  0  0  0  0  0  0  0  0  0
   -2.6430   -1.4643   -0.0000 C   0  0  0  0  0  0  0  0  0  0  0  0
    3.8454   -2.2025   -0.0000 C   0  0  0  0  0  0  0  0  0  0  0  0
   -2.6430   -4.4526   -0.0000 C   0  0  0  0  0  0  0  0  0  0  0  0
   -3.9644   -2.2025   -0.0000 C   0  0  0  0  0  0  0  0  0  0  0  0
    5.1312   -1.4405   -0.0000 C   0  0  0  0  0  0  0  0  0  0  0  0
    3.8335   -3.6906   -0.0000 C   0  0  0  0  0  0  0  0  0  0  0  0
   -3.9644   -3.6906   -0.0000 N   0  0  0  0  0  0  0  0  0  0  0  0
    6.4169   -2.1668   -0.0000 C   0  0  0  0  0  0  0  0  0  0  0  0
    5.1192   -4.4287   -0.0000 C   0  0  0  0  0  0  0  0  0  0  0  0
   -5.2740   -4.4407   -0.0000 C   0  0  0  0  0  0  0  0  0  0  0  0
    7.7027   -1.3929   -0.0000 O   0  0  0  0  0  0  0  0  0  0  0  0
    6.4050   -3.6549   -0.0000 N   0  0  0  0  0  0  0  0  0  0  0  0
   -5.2740   -5.9288   -0.0000 C   0  0  0  0  0  0  0  0  0  0  0  0
   -6.5955   -3.6787   -0.0000 C   0  0  0  0  0  0  0  0  0  0  0  0
    9.0004   -2.1310   -0.0000 C   0  0  0  0  0  0  0  0  0  0  0  0
   -6.5836   -6.6669   -0.0000 C   0  0  0  0  0  0  0  0  0  0  0  0
   -3.9763   -6.6550   -0.0000 C   0  0  0  0  0  0  0  0  0  0  0  0
   -6.5955   -8.1670   -0.0000 C   0  0  0  0  0  0  0  0  0  0  0  0
   -7.8932   -5.9050   -0.0000 C   0  0  0  0  0  0  0  0  0  0  0  0
   -3.9763   -8.1551   -0.0000 C   0  0  0  0  0  0  0  0  0  0  0  0
   -5.3097   -8.9051   -0.0000 C   0  0  0  0  0  0  0  0  0  0  0  0
   -7.9051   -8.9170   -0.0000 C   0  0  0  0  0  0  0  0  0  0  0  0
   -9.2027   -6.6431   -0.0000 C   0  0  0  0  0  0  0  0  0  0  0  0
   -9.2146   -8.1551   -0.0000 C   0  0  0  0  0  0  0  0  0  0  0  0
  1  2  2  0  0  0  0
  2  3  1  0  0  0  0
  2  4  1  0  0  0  0
  3  5  1  0  0  0  0
  4  6  1  0  0  0  0
  4  7  1  0  0  0  0
  5  8  1  0  0  0  0
  6  9  1  0  0  0  0
  7 10  1  0  0  0  0
  8 11  2  0  0  0  0
  8 12  1  0  0  0  0
  9 13  1  0  0  0  0
 11 14  1  0  0  0  0
 12 15  2  0  0  0  0
 16 13  1  6  0  0  0
 14 17  1  0  0  0  0
 14 18  2  0  0  0  0
 16 19  1  0  0  0  0
 16 20  1  0  0  0  0
 17 21  1  0  0  0  0
 19 22  1  0  0  0  0
 19 23  2  0  0  0  0
 22 24  1  0  0  0  0
 22 25  2  0  0  0  0
 23 26  1  0  0  0  0
 24 27  1  0  0  0  0
 24 28  2  0  0  0  0
 25 29  1  0  0  0  0
 28 30  1  0  0  0  0
 10 13  1  0  0  0  0
 15 18  1  0  0  0  0
 26 27  2  0  0  0  0
 29 30  2  0  0  0  0
M  END
>  <MolRegNo>
1732329

>  <m>
=

>  <Value>
9500

>  <Unit>
nM

>  <Type>
EC50

>  <Ligand Efficiency>


>  <Binding Efficiency>


>  <Surface Efficiency>


>  <Assay Index>
843084

>  <Assay Category>


>  <Assay Organism>
SARS coronavirus

>  <Target ID>
100499

>  <Target Name>
SARS coronavirus

>  <Target Organism>
SARS coronavirus

>  <Target Description>
Target is a complete organism

>  <Sequence Accession>


>  <Reference>
J. Med. Chem. 57 (6), 2393-2412 (2014)

>  <Pubmed ID>
24568342

>  <DOI>
10.1021/jm401712t

>  <InChI-Key>
MMIABLSMKGWQKD-SFHVURJKSA-N

>  <Molecular Formula>
C25H29N3O2

>  <Monoisotopic Mass>
403.225977

>  <Druglikeness>
6.7431

$$$$
Compound 351
Actelion Java MolfileCreator 1.0

 19 21  0  0  0  0  0  0  0  0999 V2000
    0.0000   -0.0000   -0.0000 Cl  0  0  0  0  0  0  0  0  0  0  0  0
   -1.3036   -0.7347   -0.0000 C   0  0  0  0  0  0  0  0  0  0  0  0
   -1.3154   -2.2279   -0.0000 C   0  0  0  0  0  0  0  0  0  0  0  0
   -2.6071    0.0237   -0.0000 C   0  0  0  0  0  0  0  0  0  0  0  0
   -2.6308   -2.9626   -0.0000 N   0  0  0  0  0  0  0  0  0  0  0  0
   -3.9107   -0.7110   -0.0000 C   0  0  0  0  0  0  0  0  0  0  0  0
   -3.9344   -2.2042   -0.0000 C   0  0  0  0  0  0  0  0  0  0  0  0
   -5.2142    0.0474   -0.0000 O   0  0  0  0  0  0  0  0  0  0  0  0
   -6.5178   -0.6873   -0.0000 C   0  0  0  0  0  0  0  0  0  0  0  0
   -6.5297   -2.1687   -0.0000 O   0  0  0  0  0  0  0  0  0  0  0  0
   -7.8214    0.0711   -0.0000 C   0  0  0  0  0  0  0  0  0  0  0  0
   -9.1960   -0.5214   -0.0000 S   0  0  0  0  0  0  0  0  0  0  0  0
   -7.9873    1.5643   -0.0000 C   0  0  0  0  0  0  0  0  0  0  0  0
  -10.2033    0.6044   -0.0000 C   0  0  0  0  0  0  0  0  0  0  0  0
   -9.4568    1.8842   -0.0000 C   0  0  0  0  0  0  0  0  0  0  0  0
  -11.7084    0.6162   -0.0000 C   0  0  0  0  0  0  0  0  0  0  0  0
  -10.2152    3.1878   -0.0000 C   0  0  0  0  0  0  0  0  0  0  0  0
  -12.4668    1.9198   -0.0000 C   0  0  0  0  0  0  0  0  0  0  0  0
  -11.7202    3.1997   -0.0000 C   0  0  0  0  0  0  0  0  0  0  0  0
  1  2  1  0  0  0  0
  2  3  2  0  0  0  0
  2  4  1  0  0  0  0
  3  5  1  0  0  0  0
  4  6  2  0  0  0  0
  5  7  2  0  0  0  0
  6  8  1  0  0  0  0
  8  9  1  0  0  0  0
  9 10  2  0  0  0  0
  9 11  1  0  0  0  0
 11 12  1  0  0  0  0
 11 13  2  0  0  0  0
 12 14  1  0  0  0  0
 13 15  1  0  0  0  0
 14 16  1  0  0  0  0
 15 17  1  0  0  0  0
 16 18  2  0  0  0  0
 17 19  2  0  0  0  0
  6  7  1  0  0  0  0
 14 15  2  0  0  0  0
 18 19  1  0  0  0  0
M  END
>  <MolRegNo>
371903

>  <m>
=

>  <Value>
95

>  <Unit>
nM

>  <Type>
IC50

>  <Ligand Efficiency>
0.50

>  <Binding Efficiency>
24.24

>  <Surface Efficiency>
17.92

>  <Assay Index>
278391

>  <Assay Category>


>  <Assay Organism>
SARS coronavirus

>  <Target ID>
20012

>  <Target Name>
SARS coronavirus 3C-like proteinase

>  <Target Organism>
SARS coronavirus

>  <Target Description>
Target is a single protein chain

>  <Sequence Accession>
P0C6U8

>  <Reference>
J. Med. Chem. 50 (8), 1850-1864 (2007)

>  <Pubmed ID>
17381079

>  <DOI>
10.1021/jm061425k

>  <InChI-Key>
MNUHXGJUYTWVLU-UHFFFAOYSA-N

>  <Molecular Formula>
C14H8NO2ClS

>  <Monoisotopic Mass>
288.996426

>  <Druglikeness>
1.1587

$$$$
Compound 352
Actelion Java MolfileCreator 1.0

 19 21  0  0  0  0  0  0  0  0999 V2000
    0.0000   -0.0000   -0.0000 Cl  0  0  0  0  0  0  0  0  0  0  0  0
   -1.3036   -0.7347   -0.0000 C   0  0  0  0  0  0  0  0  0  0  0  0
   -1.3154   -2.2279   -0.0000 C   0  0  0  0  0  0  0  0  0  0  0  0
   -2.6071    0.0237   -0.0000 C   0  0  0  0  0  0  0  0  0  0  0  0
   -2.6308   -2.9626   -0.0000 N   0  0  0  0  0  0  0  0  0  0  0  0
   -3.9107   -0.7110   -0.0000 C   0  0  0  0  0  0  0  0  0  0  0  0
   -3.9344   -2.2042   -0.0000 C   0  0  0  0  0  0  0  0  0  0  0  0
   -5.2142    0.0474   -0.0000 O   0  0  0  0  0  0  0  0  0  0  0  0
   -6.5178   -0.6873   -0.0000 C   0  0  0  0  0  0  0  0  0  0  0  0
   -6.5297   -2.1687   -0.0000 O   0  0  0  0  0  0  0  0  0  0  0  0
   -7.8214    0.0711   -0.0000 C   0  0  0  0  0  0  0  0  0  0  0  0
   -9.1960   -0.5214   -0.0000 S   0  0  0  0  0  0  0  0  0  0  0  0
   -7.9873    1.5643   -0.0000 C   0  0  0  0  0  0  0  0  0  0  0  0
  -10.2033    0.6044   -0.0000 C   0  0  0  0  0  0  0  0  0  0  0  0
   -9.4568    1.8842   -0.0000 C   0  0  0  0  0  0  0  0  0  0  0  0
  -11.7084    0.6162   -0.0000 C   0  0  0  0  0  0  0  0  0  0  0  0
  -10.2152    3.1878   -0.0000 C   0  0  0  0  0  0  0  0  0  0  0  0
  -12.4668    1.9198   -0.0000 C   0  0  0  0  0  0  0  0  0  0  0  0
  -11.7202    3.1997   -0.0000 C   0  0  0  0  0  0  0  0  0  0  0  0
  1  2  1  0  0  0  0
  2  3  2  0  0  0  0
  2  4  1  0  0  0  0
  3  5  1  0  0  0  0
  4  6  2  0  0  0  0
  5  7  2  0  0  0  0
  6  8  1  0  0  0  0
  8  9  1  0  0  0  0
  9 10  2  0  0  0  0
  9 11  1  0  0  0  0
 11 12  1  0  0  0  0
 11 13  2  0  0  0  0
 12 14  1  0  0  0  0
 13 15  1  0  0  0  0
 14 16  1  0  0  0  0
 15 17  1  0  0  0  0
 16 18  2  0  0  0  0
 17 19  2  0  0  0  0
  6  7  1  0  0  0  0
 14 15  2  0  0  0  0
 18 19  1  0  0  0  0
M  END
>  <MolRegNo>
371903

>  <m>
=

>  <Value>
96

>  <Unit>
%

>  <Type>
Inhibition

>  <Ligand Efficiency>


>  <Binding Efficiency>


>  <Surface Efficiency>


>  <Assay Index>
278392

>  <Assay Category>


>  <Assay Organism>
SARS coronavirus

>  <Target ID>
20012

>  <Target Name>
SARS coronavirus 3C-like proteinase

>  <Target Organism>
SARS coronavirus

>  <Target Description>
Target is a single protein chain

>  <Sequence Accession>
P0C6U8

>  <Reference>
J. Med. Chem. 50 (8), 1850-1864 (2007)

>  <Pubmed ID>
17381079

>  <DOI>
10.1021/jm061425k

>  <InChI-Key>
MNUHXGJUYTWVLU-UHFFFAOYSA-N

>  <Molecular Formula>
C14H8NO2ClS

>  <Monoisotopic Mass>
288.996426

>  <Druglikeness>
1.1587

$$$$
Compound 353
Actelion Java MolfileCreator 1.0

 34 38  0  0  0  0  0  0  0  0999 V2000
    0.0000   -0.0000   -0.0000 O   0  0  0  0  0  0  0  0  0  0  0  0
   -0.7543    1.3083   -0.0000 C   0  0  0  0  0  0  0  0  0  0  0  0
   -2.2630    1.3201   -0.0000 C   0  0  0  0  0  0  0  0  0  0  0  0
   -0.0236    2.6166   -0.0000 C   0  0  0  0  0  0  0  0  0  0  0  0
   -3.0173    2.6284   -0.0000 C   0  0  0  0  0  0  0  0  0  0  0  0
   -0.7779    3.9249   -0.0000 C   0  0  0  0  0  0  0  0  0  0  0  0
    1.4615    2.6284   -0.0000 C   0  0  0  0  0  0  0  0  0  0  0  0
   -2.2866    3.9366   -0.0000 C   0  0  0  0  0  0  0  0  0  0  0  0
   -4.5260    2.6401   -0.0000 C   0  0  0  0  0  0  0  0  0  0  0  0
   -0.0471    5.2331   -0.0000 C   0  0  0  0  0  0  0  0  0  0  0  0
   -1.5322    5.2331   -0.0000 C   0  0  0  0  0  0  0  0  0  0  0  0
    2.2040    3.9366   -0.0000 C   0  0  0  0  0  0  0  0  0  0  0  0
    2.2040    1.3436   -0.0000 C   0  0  0  0  0  0  0  0  0  0  0  0
    0.7072    1.3436   -0.0000 C   0  0  0  0  0  0  0  0  0  0  0  0
   -3.0409    5.2449   -0.0000 C   0  0  0  0  0  0  0  0  0  0  0  0
   -2.4516    5.4335   -0.0000 C   0  0  0  0  0  0  0  0  0  0  0  0
   -5.2803    3.9484   -0.0000 C   0  0  0  0  0  0  0  0  0  0  0  0
   -5.2803    1.3554   -0.0000 C   0  0  0  0  0  0  0  0  0  0  0  0
    1.4379    5.2449   -0.0000 C   0  0  0  0  0  0  0  0  0  0  0  0
    3.6891    3.9484   -0.0000 C   0  0  0  0  0  0  0  0  0  0  0  0
    3.6891    1.3554   -0.0000 C   0  0  0  0  0  0  0  0  0  0  0  0
   -4.5495    5.2567   -0.0000 C   0  0  0  0  0  0  0  0  0  0  0  0
   -6.7889    3.9602   -0.0000 C   0  0  0  0  0  0  0  0  0  0  0  0
   -6.0346    5.2567   -0.0000 C   0  0  0  0  0  0  0  0  0  0  0  0
   -6.7889    1.3672   -0.0000 C   0  0  0  0  0  0  0  0  0  0  0  0
    4.4199    2.6637   -0.0000 C   0  0  0  0  0  0  0  0  0  0  0  0
    4.9503    4.7499   -0.0000 C   0  0  0  0  0  0  0  0  0  0  0  0
    3.7245    5.4571   -0.0000 C   0  0  0  0  0  0  0  0  0  0  0  0
   -7.5433    2.6755   -0.0000 C   0  0  0  0  0  0  0  0  0  0  0  0
   -8.0737    0.5893   -0.0000 C   0  0  0  0  0  0  0  0  0  0  0  0
   -6.8479   -0.1179   -0.0000 C   0  0  0  0  0  0  0  0  0  0  0  0
    5.9050    2.6755   -0.0000 O   0  0  0  0  0  0  0  0  0  0  0  0
   -9.4055    1.3083   -0.0000 O   0  0  0  0  0  0  0  0  0  0  0  0
   -8.0383   -0.8958   -0.0000 O   0  0  0  0  0  0  0  0  0  0  0  0
  1  2  2  0  0  0  0
  2  3  1  0  0  0  0
  4  2  1  1  0  0  0
  3  5  2  0  0  0  0
  4  6  1  0  0  0  0
  4  7  1  0  0  0  0
  5  8  1  0  0  0  0
  5  9  1  0  0  0  0
  6 10  1  0  0  0  0
  6 11  1  1  0  0  0
  7 12  1  0  0  0  0
  7 13  1  0  0  0  0
  7 14  1  1  0  0  0
  8 15  1  0  0  0  0
  8 16  1  6  0  0  0
  9 17  1  0  0  0  0
  9 18  1  6  0  0  0
 10 19  1  0  0  0  0
 12 20  1  0  0  0  0
 13 21  1  0  0  0  0
 15 22  1  0  0  0  0
 17 23  1  0  0  0  0
 17 24  1  1  0  0  0
 18 25  1  0  0  0  0
 20 26  1  0  0  0  0
 20 27  1  0  0  0  0
 20 28  1  0  0  0  0
 23 29  1  0  0  0  0
 25 30  1  0  0  0  0
 25 31  1  6  0  0  0
 26 32  1  1  0  0  0
 30 33  2  0  0  0  0
 30 34  1  0  0  0  0
  6  8  1  0  0  0  0
 12 19  1  1  0  0  0
 17 22  1  0  0  0  0
 21 26  1  0  0  0  0
 25 29  1  0  0  0  0
M  END
>  <MolRegNo>
387585

>  <m>


>  <Value>
0

>  <Unit>


>  <Type>
Activity

>  <Ligand Efficiency>


>  <Binding Efficiency>


>  <Surface Efficiency>


>  <Assay Index>
294022

>  <Assay Category>


>  <Assay Organism>
SARS coronavirus

>  <Target ID>
100499

>  <Target Name>
SARS coronavirus

>  <Target Organism>
SARS coronavirus

>  <Target Description>
Target is a complete organism

>  <Sequence Accession>


>  <Reference>
J. Med. Chem. 50 (17), 4087-4095 (2007)

>  <Pubmed ID>
17663539

>  <DOI>
10.1021/jm070295s

>  <InChI-Key>
MPDGHEJMBKOTSU-LBWPLNRGSA-N

>  <Molecular Formula>
C30H46O4

>  <Monoisotopic Mass>
470.339610

>  <Druglikeness>
-2.3558

$$$$
Compound 354
Actelion Java MolfileCreator 1.0

 34 38  0  0  0  0  0  0  0  0999 V2000
    0.0000   -0.0000   -0.0000 O   0  0  0  0  0  0  0  0  0  0  0  0
   -0.7543    1.3083   -0.0000 C   0  0  0  0  0  0  0  0  0  0  0  0
   -2.2630    1.3201   -0.0000 C   0  0  0  0  0  0  0  0  0  0  0  0
   -0.0236    2.6166   -0.0000 C   0  0  0  0  0  0  0  0  0  0  0  0
   -3.0173    2.6284   -0.0000 C   0  0  0  0  0  0  0  0  0  0  0  0
   -0.7779    3.9249   -0.0000 C   0  0  0  0  0  0  0  0  0  0  0  0
    1.4615    2.6284   -0.0000 C   0  0  0  0  0  0  0  0  0  0  0  0
   -2.2866    3.9366   -0.0000 C   0  0  0  0  0  0  0  0  0  0  0  0
   -4.5260    2.6401   -0.0000 C   0  0  0  0  0  0  0  0  0  0  0  0
   -0.0471    5.2331   -0.0000 C   0  0  0  0  0  0  0  0  0  0  0  0
   -1.5322    5.2331   -0.0000 C   0  0  0  0  0  0  0  0  0  0  0  0
    2.2040    3.9366   -0.0000 C   0  0  0  0  0  0  0  0  0  0  0  0
    2.2040    1.3436   -0.0000 C   0  0  0  0  0  0  0  0  0  0  0  0
    0.7072    1.3436   -0.0000 C   0  0  0  0  0  0  0  0  0  0  0  0
   -3.0409    5.2449   -0.0000 C   0  0  0  0  0  0  0  0  0  0  0  0
   -2.4516    5.4335   -0.0000 C   0  0  0  0  0  0  0  0  0  0  0  0
   -5.2803    3.9484   -0.0000 C   0  0  0  0  0  0  0  0  0  0  0  0
   -5.2803    1.3554   -0.0000 C   0  0  0  0  0  0  0  0  0  0  0  0
    1.4379    5.2449   -0.0000 C   0  0  0  0  0  0  0  0  0  0  0  0
    3.6891    3.9484   -0.0000 C   0  0  0  0  0  0  0  0  0  0  0  0
    3.6891    1.3554   -0.0000 C   0  0  0  0  0  0  0  0  0  0  0  0
   -4.5495    5.2567   -0.0000 C   0  0  0  0  0  0  0  0  0  0  0  0
   -6.7889    3.9602   -0.0000 C   0  0  0  0  0  0  0  0  0  0  0  0
   -6.0346    5.2567   -0.0000 C   0  0  0  0  0  0  0  0  0  0  0  0
   -6.7889    1.3672   -0.0000 C   0  0  0  0  0  0  0  0  0  0  0  0
    4.4199    2.6637   -0.0000 C   0  0  0  0  0  0  0  0  0  0  0  0
    4.9503    4.7499   -0.0000 C   0  0  0  0  0  0  0  0  0  0  0  0
    3.7245    5.4571   -0.0000 C   0  0  0  0  0  0  0  0  0  0  0  0
   -7.5433    2.6755   -0.0000 C   0  0  0  0  0  0  0  0  0  0  0  0
   -8.0737    0.5893   -0.0000 C   0  0  0  0  0  0  0  0  0  0  0  0
   -6.8479   -0.1179   -0.0000 C   0  0  0  0  0  0  0  0  0  0  0  0
    5.9050    2.6755   -0.0000 O   0  0  0  0  0  0  0  0  0  0  0  0
   -9.4055    1.3083   -0.0000 O   0  0  0  0  0  0  0  0  0  0  0  0
   -8.0383   -0.8958   -0.0000 O   0  0  0  0  0  0  0  0  0  0  0  0
  1  2  2  0  0  0  0
  2  3  1  0  0  0  0
  4  2  1  1  0  0  0
  3  5  2  0  0  0  0
  4  6  1  0  0  0  0
  4  7  1  0  0  0  0
  5  8  1  0  0  0  0
  5  9  1  0  0  0  0
  6 10  1  0  0  0  0
  6 11  1  1  0  0  0
  7 12  1  0  0  0  0
  7 13  1  0  0  0  0
  7 14  1  1  0  0  0
  8 15  1  0  0  0  0
  8 16  1  6  0  0  0
  9 17  1  0  0  0  0
  9 18  1  6  0  0  0
 10 19  1  0  0  0  0
 12 20  1  0  0  0  0
 13 21  1  0  0  0  0
 15 22  1  0  0  0  0
 17 23  1  0  0  0  0
 17 24  1  1  0  0  0
 18 25  1  0  0  0  0
 20 26  1  0  0  0  0
 20 27  1  0  0  0  0
 20 28  1  0  0  0  0
 23 29  1  0  0  0  0
 25 30  1  0  0  0  0
 25 31  1  6  0  0  0
 26 32  1  1  0  0  0
 30 33  2  0  0  0  0
 30 34  1  0  0  0  0
  6  8  1  0  0  0  0
 12 19  1  1  0  0  0
 17 22  1  0  0  0  0
 21 26  1  0  0  0  0
 25 29  1  0  0  0  0
M  END
>  <MolRegNo>
387585

>  <m>


>  <Value>
0

>  <Unit>


>  <Type>
Activity

>  <Ligand Efficiency>


>  <Binding Efficiency>


>  <Surface Efficiency>


>  <Assay Index>
294025

>  <Assay Category>


>  <Assay Organism>
SARS coronavirus

>  <Target ID>
100499

>  <Target Name>
SARS coronavirus

>  <Target Organism>
SARS coronavirus

>  <Target Description>
Target is a complete organism

>  <Sequence Accession>


>  <Reference>
J. Med. Chem. 50 (17), 4087-4095 (2007)

>  <Pubmed ID>
17663539

>  <DOI>
10.1021/jm070295s

>  <InChI-Key>
MPDGHEJMBKOTSU-LBWPLNRGSA-N

>  <Molecular Formula>
C30H46O4

>  <Monoisotopic Mass>
470.339610

>  <Druglikeness>
-2.3558

$$$$
Compound 355
Actelion Java MolfileCreator 1.0

 34 38  0  0  0  0  0  0  0  0999 V2000
    0.0000   -0.0000   -0.0000 O   0  0  0  0  0  0  0  0  0  0  0  0
   -0.7543    1.3083   -0.0000 C   0  0  0  0  0  0  0  0  0  0  0  0
   -2.2630    1.3201   -0.0000 C   0  0  0  0  0  0  0  0  0  0  0  0
   -0.0236    2.6166   -0.0000 C   0  0  0  0  0  0  0  0  0  0  0  0
   -3.0173    2.6284   -0.0000 C   0  0  0  0  0  0  0  0  0  0  0  0
   -0.7779    3.9249   -0.0000 C   0  0  0  0  0  0  0  0  0  0  0  0
    1.4615    2.6284   -0.0000 C   0  0  0  0  0  0  0  0  0  0  0  0
   -2.2866    3.9366   -0.0000 C   0  0  0  0  0  0  0  0  0  0  0  0
   -4.5260    2.6401   -0.0000 C   0  0  0  0  0  0  0  0  0  0  0  0
   -0.0471    5.2331   -0.0000 C   0  0  0  0  0  0  0  0  0  0  0  0
   -1.5322    5.2331   -0.0000 C   0  0  0  0  0  0  0  0  0  0  0  0
    2.2040    3.9366   -0.0000 C   0  0  0  0  0  0  0  0  0  0  0  0
    2.2040    1.3436   -0.0000 C   0  0  0  0  0  0  0  0  0  0  0  0
    0.7072    1.3436   -0.0000 C   0  0  0  0  0  0  0  0  0  0  0  0
   -3.0409    5.2449   -0.0000 C   0  0  0  0  0  0  0  0  0  0  0  0
   -2.4516    5.4335   -0.0000 C   0  0  0  0  0  0  0  0  0  0  0  0
   -5.2803    3.9484   -0.0000 C   0  0  0  0  0  0  0  0  0  0  0  0
   -5.2803    1.3554   -0.0000 C   0  0  0  0  0  0  0  0  0  0  0  0
    1.4379    5.2449   -0.0000 C   0  0  0  0  0  0  0  0  0  0  0  0
    3.6891    3.9484   -0.0000 C   0  0  0  0  0  0  0  0  0  0  0  0
    3.6891    1.3554   -0.0000 C   0  0  0  0  0  0  0  0  0  0  0  0
   -4.5495    5.2567   -0.0000 C   0  0  0  0  0  0  0  0  0  0  0  0
   -6.7889    3.9602   -0.0000 C   0  0  0  0  0  0  0  0  0  0  0  0
   -6.0346    5.2567   -0.0000 C   0  0  0  0  0  0  0  0  0  0  0  0
   -6.7889    1.3672   -0.0000 C   0  0  0  0  0  0  0  0  0  0  0  0
    4.4199    2.6637   -0.0000 C   0  0  0  0  0  0  0  0  0  0  0  0
    4.9503    4.7499   -0.0000 C   0  0  0  0  0  0  0  0  0  0  0  0
    3.7245    5.4571   -0.0000 C   0  0  0  0  0  0  0  0  0  0  0  0
   -7.5433    2.6755   -0.0000 C   0  0  0  0  0  0  0  0  0  0  0  0
   -8.0737    0.5893   -0.0000 C   0  0  0  0  0  0  0  0  0  0  0  0
   -6.8479   -0.1179   -0.0000 C   0  0  0  0  0  0  0  0  0  0  0  0
    5.9050    2.6755   -0.0000 O   0  0  0  0  0  0  0  0  0  0  0  0
   -9.4055    1.3083   -0.0000 O   0  0  0  0  0  0  0  0  0  0  0  0
   -8.0383   -0.8958   -0.0000 O   0  0  0  0  0  0  0  0  0  0  0  0
  1  2  2  0  0  0  0
  2  3  1  0  0  0  0
  4  2  1  1  0  0  0
  3  5  2  0  0  0  0
  4  6  1  0  0  0  0
  4  7  1  0  0  0  0
  5  8  1  0  0  0  0
  5  9  1  0  0  0  0
  6 10  1  0  0  0  0
  6 11  1  1  0  0  0
  7 12  1  0  0  0  0
  7 13  1  0  0  0  0
  7 14  1  1  0  0  0
  8 15  1  0  0  0  0
  8 16  1  6  0  0  0
  9 17  1  0  0  0  0
  9 18  1  6  0  0  0
 10 19  1  0  0  0  0
 12 20  1  0  0  0  0
 13 21  1  0  0  0  0
 15 22  1  0  0  0  0
 17 23  1  0  0  0  0
 17 24  1  1  0  0  0
 18 25  1  0  0  0  0
 20 26  1  0  0  0  0
 20 27  1  0  0  0  0
 20 28  1  0  0  0  0
 23 29  1  0  0  0  0
 25 30  1  0  0  0  0
 25 31  1  6  0  0  0
 26 32  1  1  0  0  0
 30 33  2  0  0  0  0
 30 34  1  0  0  0  0
  6  8  1  0  0  0  0
 12 19  1  1  0  0  0
 17 22  1  0  0  0  0
 21 26  1  0  0  0  0
 25 29  1  0  0  0  0
M  END
>  <MolRegNo>
387585

>  <m>


>  <Value>
0

>  <Unit>


>  <Type>
Activity

>  <Ligand Efficiency>


>  <Binding Efficiency>


>  <Surface Efficiency>


>  <Assay Index>
294024

>  <Assay Category>


>  <Assay Organism>
SARS coronavirus

>  <Target ID>
100499

>  <Target Name>
SARS coronavirus

>  <Target Organism>
SARS coronavirus

>  <Target Description>
Target is a complete organism

>  <Sequence Accession>


>  <Reference>
J. Med. Chem. 50 (17), 4087-4095 (2007)

>  <Pubmed ID>
17663539

>  <DOI>
10.1021/jm070295s

>  <InChI-Key>
MPDGHEJMBKOTSU-LBWPLNRGSA-N

>  <Molecular Formula>
C30H46O4

>  <Monoisotopic Mass>
470.339610

>  <Druglikeness>
-2.3558

$$$$
Compound 356
Actelion Java MolfileCreator 1.0

 34 38  0  0  0  0  0  0  0  0999 V2000
    0.0000   -0.0000   -0.0000 O   0  0  0  0  0  0  0  0  0  0  0  0
   -0.7543    1.3083   -0.0000 C   0  0  0  0  0  0  0  0  0  0  0  0
   -2.2630    1.3201   -0.0000 C   0  0  0  0  0  0  0  0  0  0  0  0
   -0.0236    2.6166   -0.0000 C   0  0  0  0  0  0  0  0  0  0  0  0
   -3.0173    2.6284   -0.0000 C   0  0  0  0  0  0  0  0  0  0  0  0
   -0.7779    3.9249   -0.0000 C   0  0  0  0  0  0  0  0  0  0  0  0
    1.4615    2.6284   -0.0000 C   0  0  0  0  0  0  0  0  0  0  0  0
   -2.2866    3.9366   -0.0000 C   0  0  0  0  0  0  0  0  0  0  0  0
   -4.5260    2.6401   -0.0000 C   0  0  0  0  0  0  0  0  0  0  0  0
   -0.0471    5.2331   -0.0000 C   0  0  0  0  0  0  0  0  0  0  0  0
   -1.5322    5.2331   -0.0000 C   0  0  0  0  0  0  0  0  0  0  0  0
    2.2040    3.9366   -0.0000 C   0  0  0  0  0  0  0  0  0  0  0  0
    2.2040    1.3436   -0.0000 C   0  0  0  0  0  0  0  0  0  0  0  0
    0.7072    1.3436   -0.0000 C   0  0  0  0  0  0  0  0  0  0  0  0
   -3.0409    5.2449   -0.0000 C   0  0  0  0  0  0  0  0  0  0  0  0
   -2.4516    5.4335   -0.0000 C   0  0  0  0  0  0  0  0  0  0  0  0
   -5.2803    3.9484   -0.0000 C   0  0  0  0  0  0  0  0  0  0  0  0
   -5.2803    1.3554   -0.0000 C   0  0  0  0  0  0  0  0  0  0  0  0
    1.4379    5.2449   -0.0000 C   0  0  0  0  0  0  0  0  0  0  0  0
    3.6891    3.9484   -0.0000 C   0  0  0  0  0  0  0  0  0  0  0  0
    3.6891    1.3554   -0.0000 C   0  0  0  0  0  0  0  0  0  0  0  0
   -4.5495    5.2567   -0.0000 C   0  0  0  0  0  0  0  0  0  0  0  0
   -6.7889    3.9602   -0.0000 C   0  0  0  0  0  0  0  0  0  0  0  0
   -6.0346    5.2567   -0.0000 C   0  0  0  0  0  0  0  0  0  0  0  0
   -6.7889    1.3672   -0.0000 C   0  0  0  0  0  0  0  0  0  0  0  0
    4.4199    2.6637   -0.0000 C   0  0  0  0  0  0  0  0  0  0  0  0
    4.9503    4.7499   -0.0000 C   0  0  0  0  0  0  0  0  0  0  0  0
    3.7245    5.4571   -0.0000 C   0  0  0  0  0  0  0  0  0  0  0  0
   -7.5433    2.6755   -0.0000 C   0  0  0  0  0  0  0  0  0  0  0  0
   -8.0737    0.5893   -0.0000 C   0  0  0  0  0  0  0  0  0  0  0  0
   -6.8479   -0.1179   -0.0000 C   0  0  0  0  0  0  0  0  0  0  0  0
    5.9050    2.6755   -0.0000 O   0  0  0  0  0  0  0  0  0  0  0  0
   -9.4055    1.3083   -0.0000 O   0  0  0  0  0  0  0  0  0  0  0  0
   -8.0383   -0.8958   -0.0000 O   0  0  0  0  0  0  0  0  0  0  0  0
  1  2  2  0  0  0  0
  2  3  1  0  0  0  0
  4  2  1  1  0  0  0
  3  5  2  0  0  0  0
  4  6  1  0  0  0  0
  4  7  1  0  0  0  0
  5  8  1  0  0  0  0
  5  9  1  0  0  0  0
  6 10  1  0  0  0  0
  6 11  1  1  0  0  0
  7 12  1  0  0  0  0
  7 13  1  0  0  0  0
  7 14  1  1  0  0  0
  8 15  1  0  0  0  0
  8 16  1  6  0  0  0
  9 17  1  0  0  0  0
  9 18  1  6  0  0  0
 10 19  1  0  0  0  0
 12 20  1  0  0  0  0
 13 21  1  0  0  0  0
 15 22  1  0  0  0  0
 17 23  1  0  0  0  0
 17 24  1  1  0  0  0
 18 25  1  0  0  0  0
 20 26  1  0  0  0  0
 20 27  1  0  0  0  0
 20 28  1  0  0  0  0
 23 29  1  0  0  0  0
 25 30  1  0  0  0  0
 25 31  1  6  0  0  0
 26 32  1  1  0  0  0
 30 33  2  0  0  0  0
 30 34  1  0  0  0  0
  6  8  1  0  0  0  0
 12 19  1  1  0  0  0
 17 22  1  0  0  0  0
 21 26  1  0  0  0  0
 25 29  1  0  0  0  0
M  END
>  <MolRegNo>
387585

>  <m>


>  <Value>
0

>  <Unit>


>  <Type>
Activity

>  <Ligand Efficiency>


>  <Binding Efficiency>


>  <Surface Efficiency>


>  <Assay Index>
294023

>  <Assay Category>


>  <Assay Organism>
SARS coronavirus

>  <Target ID>
100499

>  <Target Name>
SARS coronavirus

>  <Target Organism>
SARS coronavirus

>  <Target Description>
Target is a complete organism

>  <Sequence Accession>


>  <Reference>
J. Med. Chem. 50 (17), 4087-4095 (2007)

>  <Pubmed ID>
17663539

>  <DOI>
10.1021/jm070295s

>  <InChI-Key>
MPDGHEJMBKOTSU-LBWPLNRGSA-N

>  <Molecular Formula>
C30H46O4

>  <Monoisotopic Mass>
470.339610

>  <Druglikeness>
-2.3558

$$$$
Compound 357
Actelion Java MolfileCreator 1.0

 44 46  0  0  1  0  0  0  0  0999 V2000
    0.0000   -0.0000   -0.0000 O   0  0  0  0  0  0  0  0  0  0  0  0
    1.0992   -0.9917   -0.0000 C   0  0  0  0  0  0  0  0  0  0  0  0
    2.5569   -0.6691   -0.0000 N   0  0  0  0  0  0  0  0  0  0  0  0
    0.9320   -2.4852   -0.0000 C   0  0  0  0  0  0  0  0  0  0  0  0
    3.2977   -1.9595   -0.0000 C   0  0  0  0  0  0  0  0  0  0  0  0
    2.3060   -3.0707   -0.0000 C   0  0  0  0  0  0  0  0  0  0  0  0
   -0.3823   -3.2260   -0.0000 C   0  0  0  0  0  0  0  0  0  0  0  0
   -0.3943   -4.7196   -0.0000 C   0  0  0  0  0  0  0  0  0  0  0  0
   -1.7086   -5.4604   -0.0000 N   0  0  0  0  0  0  0  0  0  0  0  0
    0.8961   -5.4604   -0.0000 C   0  0  0  0  0  0  0  0  0  0  0  0
   -3.0229   -4.6957   -0.0000 C   0  0  0  0  0  0  0  0  0  0  0  0
    2.0671   -4.7554   -0.0000 C   0  0  0  0  0  0  0  0  0  0  0  0
   -3.0349   -3.1782   -0.0000 O   0  0  0  0  0  0  0  0  0  0  0  0
   -4.3372   -5.4365   -0.0000 C   0  0  0  0  0  0  0  0  0  0  0  0
    3.4770   -5.4365   -0.0000 C   0  0  0  0  0  0  0  0  0  0  0  0
   -5.6515   -4.6718   -0.0000 N   0  0  0  0  0  0  0  0  0  0  0  0
   -4.3492   -6.9300   -0.0000 C   0  0  0  0  0  0  0  0  0  0  0  0
    3.4650   -6.9300   -0.0000 O   0  0  0  0  0  0  0  0  0  0  0  0
    4.7674   -4.6718   -0.0000 O   0  0  0  0  0  0  0  0  0  0  0  0
   -6.9659   -5.4126   -0.0000 C   0  0  0  0  0  0  0  0  0  0  0  0
   -3.3097   -7.9695   -0.0000 C   0  0  0  0  0  0  0  0  0  0  0  0
    6.0578   -5.4126   -0.0000 C   0  0  0  0  0  0  0  0  0  0  0  0
   -6.9778   -6.9061   -0.0000 O   0  0  0  0  0  0  0  0  0  0  0  0
   -8.2921   -4.6479   -0.0000 C   0  0  0  0  0  0  0  0  0  0  0  0
   -1.8878   -7.5752   -0.0000 C   0  0  0  0  0  0  0  0  0  0  0  0
   -3.7040   -9.4033   -0.0000 C   0  0  0  0  0  0  0  0  0  0  0  0
    7.3482   -4.6479   -0.0000 C   0  0  0  0  0  0  0  0  0  0  0  0
   -9.6064   -5.3887   -0.0000 N   0  0  0  0  0  0  0  0  0  0  0  0
   -8.3041   -3.1305   -0.0000 C   0  0  0  0  0  0  0  0  0  0  0  0
   -0.8483   -8.6147   -0.0000 C   0  0  0  0  0  0  0  0  0  0  0  0
   -2.6645  -10.4428   -0.0000 C   0  0  0  0  0  0  0  0  0  0  0  0
  -10.9207   -4.6240   -0.0000 C   0  0  0  0  0  0  0  0  0  0  0  0
   -7.0017   -2.3658   -0.0000 C   0  0  0  0  0  0  0  0  0  0  0  0
   -9.6184   -2.3658   -0.0000 C   0  0  0  0  0  0  0  0  0  0  0  0
   -1.2307  -10.0605   -0.0000 C   0  0  0  0  0  0  0  0  0  0  0  0
  -10.9327   -3.1066   -0.0000 O   0  0  0  0  0  0  0  0  0  0  0  0
  -12.2350   -5.3648   -0.0000 O   0  0  0  0  0  0  0  0  0  0  0  0
  -13.5494   -4.6001   -0.0000 C   0  0  0  0  0  0  0  0  0  0  0  0
  -14.8637   -5.3409   -0.0000 C   0  0  0  0  0  0  0  0  0  0  0  0
  -16.1899   -4.5642   -0.0000 C   0  0  0  0  0  0  0  0  0  0  0  0
  -14.8756   -6.8105   -0.0000 C   0  0  0  0  0  0  0  0  0  0  0  0
  -17.5042   -5.2931   -0.0000 C   0  0  0  0  0  0  0  0  0  0  0  0
  -16.1780   -7.5633   -0.0000 C   0  0  0  0  0  0  0  0  0  0  0  0
  -17.5162   -6.7986   -0.0000 C   0  0  0  0  0  0  0  0  0  0  0  0
  1  2  2  0  0  0  0
  2  3  1  0  0  0  0
  2  4  1  0  0  0  0
  3  5  1  0  0  0  0
  4  6  1  0  0  0  0
  4  7  1  1  0  0  0
  7  8  1  0  0  0  0
  8  9  1  1  0  0  0
  8 10  1  0  0  0  0
  9 11  1  0  0  0  0
 10 12  2  0  0  0  0
 11 13  2  0  0  0  0
 11 14  1  0  0  0  0
 12 15  1  0  0  0  0
 14 16  1  6  0  0  0
 14 17  1  0  0  0  0
 15 18  2  0  0  0  0
 15 19  1  0  0  0  0
 16 20  1  0  0  0  0
 17 21  1  0  0  0  0
 19 22  1  0  0  0  0
 20 23  2  0  0  0  0
 20 24  1  0  0  0  0
 21 25  2  0  0  0  0
 21 26  1  0  0  0  0
 22 27  1  0  0  0  0
 24 28  1  1  0  0  0
 24 29  1  0  0  0  0
 25 30  1  0  0  0  0
 26 31  2  0  0  0  0
 28 32  1  0  0  0  0
 29 33  1  0  0  0  0
 29 34  1  0  0  0  0
 30 35  2  0  0  0  0
 32 36  2  0  0  0  0
 32 37  1  0  0  0  0
 37 38  1  0  0  0  0
 38 39  1  0  0  0  0
 39 40  2  0  0  0  0
 39 41  1  0  0  0  0
 40 42  1  0  0  0  0
 41 43  2  0  0  0  0
 42 44  2  0  0  0  0
  5  6  1  0  0  0  0
 31 35  1  0  0  0  0
 43 44  1  0  0  0  0
M  END
>  <MolRegNo>
24130

>  <m>
=

>  <Value>
2260

>  <Unit>
nM

>  <Type>
Ki

>  <Ligand Efficiency>
0.18

>  <Binding Efficiency>
9.31

>  <Surface Efficiency>
3.72

>  <Assay Index>
265844

>  <Assay Category>


>  <Assay Organism>
SARS coronavirus

>  <Target ID>
20012

>  <Target Name>
SARS coronavirus 3C-like proteinase

>  <Target Organism>
SARS coronavirus

>  <Target Description>
Target is a single protein chain

>  <Sequence Accession>
P0C6U8

>  <Reference>
J. Med. Chem. 49 (16), 4971-4980 (2006)

>  <Pubmed ID>
16884309

>  <DOI>
10.1021/jm0603926

>  <InChI-Key>
MQOSRSSZYUXZNH-UMNYJUJISA-N

>  <Molecular Formula>
C33H42N4O7

>  <Monoisotopic Mass>
606.305351

>  <Druglikeness>
-21.737

$$$$
Compound 358
Actelion Java MolfileCreator 1.0

 56 59  0  0  1  0  0  0  0  0999 V2000
    0.0000   -0.0000   -0.0000 O   0  0  0  0  0  0  0  0  0  0  0  0
   -0.0237   -1.4912   -0.0000 C   0  0  0  0  0  0  0  0  0  0  0  0
   -1.3374   -2.2250   -0.0000 N   0  0  0  0  0  0  0  0  0  0  0  0
    1.2545   -2.2369   -0.0000 C   0  0  0  0  0  0  0  0  0  0  0  0
   -1.3611   -3.7163   -0.0000 N   0  0  0  0  0  0  0  0  0  0  0  0
   -2.6393   -1.4557   -0.0000 C   0  0  0  0  0  0  0  0  0  0  0  0
    1.2309   -3.7281   -0.0000 C   0  0  0  0  0  0  0  0  0  0  0  0
    2.5327   -1.4794   -0.0000 C   0  0  0  0  0  0  0  0  0  0  0  0
   -0.0710   -4.4619   -0.0000 C   0  0  0  0  0  0  0  0  0  0  0  0
   -3.9530   -2.1895   -0.0000 C   0  0  0  0  0  0  0  0  0  0  0  0
    2.5209   -4.4619   -0.0000 C   0  0  0  0  0  0  0  0  0  0  0  0
    3.8228   -2.2132   -0.0000 C   0  0  0  0  0  0  0  0  0  0  0  0
   -0.0828   -5.9531   -0.0000 O   0  0  0  0  0  0  0  0  0  0  0  0
   -3.9766   -3.6808   -0.0000 O   0  0  0  0  0  0  0  0  0  0  0  0
   -5.2548   -1.4202   -0.0000 C   0  0  0  0  0  0  0  0  0  0  0  0
    3.8109   -3.7044   -0.0000 C   0  0  0  0  0  0  0  0  0  0  0  0
   -6.5685   -2.1540   -0.0000 N   0  0  0  0  0  0  0  0  0  0  0  0
   -5.2548    0.0947   -0.0000 C   0  0  0  0  0  0  0  0  0  0  0  0
   -7.8704   -1.3847   -0.0000 C   0  0  0  0  0  0  0  0  0  0  0  0
   -3.9648    0.8521   -0.0000 C   0  0  0  0  0  0  0  0  0  0  0  0
   -7.8704    0.1302   -0.0000 O   0  0  0  0  0  0  0  0  0  0  0  0
   -9.1841   -2.1185   -0.0000 C   0  0  0  0  0  0  0  0  0  0  0  0
   -2.6866    0.1065   -0.0000 C   0  0  0  0  0  0  0  0  0  0  0  0
   -3.9648    2.3552   -0.0000 C   0  0  0  0  0  0  0  0  0  0  0  0
  -10.4860   -1.3492   -0.0000 N   0  0  0  0  0  0  0  0  0  0  0  0
   -9.2078   -3.6097   -0.0000 C   0  0  0  0  0  0  0  0  0  0  0  0
   -1.3966    0.8640   -0.0000 C   0  0  0  0  0  0  0  0  0  0  0  0
   -2.6748    3.1127   -0.0000 C   0  0  0  0  0  0  0  0  0  0  0  0
  -11.7997   -2.0830   -0.0000 C   0  0  0  0  0  0  0  0  0  0  0  0
   -7.9296   -4.3554   -0.0000 C   0  0  0  0  0  0  0  0  0  0  0  0
   -1.3966    2.3789   -0.0000 C   0  0  0  0  0  0  0  0  0  0  0  0
  -11.8234   -3.5742   -0.0000 O   0  0  0  0  0  0  0  0  0  0  0  0
  -13.1016   -1.3137   -0.0000 C   0  0  0  0  0  0  0  0  0  0  0  0
   -7.9533   -5.8466   -0.0000 C   0  0  0  0  0  0  0  0  0  0  0  0
   -6.6396   -3.5979   -0.0000 C   0  0  0  0  0  0  0  0  0  0  0  0
  -14.4153   -2.0475   -0.0000 N   0  0  0  0  0  0  0  0  0  0  0  0
  -13.1016    0.2012   -0.0000 C   0  0  0  0  0  0  0  0  0  0  0  0
  -15.7172   -1.2782   -0.0000 C   0  0  0  0  0  0  0  0  0  0  0  0
  -14.4035    0.9705   -0.0000 O   0  0  0  0  0  0  0  0  0  0  0  0
  -11.8116    0.9587   -0.0000 C   0  0  0  0  0  0  0  0  0  0  0  0
  -15.7172    0.2367   -0.0000 O   0  0  0  0  0  0  0  0  0  0  0  0
  -17.0309   -2.0120   -0.0000 C   0  0  0  0  0  0  0  0  0  0  0  0
  -14.4035    2.4854   -0.0000 C   0  0  0  0  0  0  0  0  0  0  0  0
  -18.3328   -1.2427   -0.0000 N   0  0  0  0  0  0  0  0  0  0  0  0
  -17.0546   -3.5032   -0.0000 C   0  0  0  0  0  0  0  0  0  0  0  0
  -15.7053    3.2547   -0.0000 C   0  0  0  0  0  0  0  0  0  0  0  0
  -19.6465   -1.9765   -0.0000 C   0  0  0  0  0  0  0  0  0  0  0  0
  -18.3683   -4.2370   -0.0000 C   0  0  0  0  0  0  0  0  0  0  0  0
  -15.7764   -4.2488   -0.0000 C   0  0  0  0  0  0  0  0  0  0  0  0
  -15.6935    4.7578   -0.0000 C   0  0  0  0  0  0  0  0  0  0  0  0
  -17.0072    2.5327   -0.0000 C   0  0  0  0  0  0  0  0  0  0  0  0
  -19.6701   -3.4677   -0.0000 O   0  0  0  0  0  0  0  0  0  0  0  0
  -20.9483   -1.2072   -0.0000 C   0  0  0  0  0  0  0  0  0  0  0  0
  -16.9954    5.5270   -0.0000 C   0  0  0  0  0  0  0  0  0  0  0  0
  -18.3091    3.2902   -0.0000 C   0  0  0  0  0  0  0  0  0  0  0  0
  -18.3091    4.8169   -0.0000 C   0  0  0  0  0  0  0  0  0  0  0  0
  1  2  2  0  0  0  0
  2  3  1  0  0  0  0
  2  4  1  0  0  0  0
  3  5  1  0  0  0  0
  3  6  1  0  0  0  0
  4  7  2  0  0  0  0
  4  8  1  0  0  0  0
  5  9  1  0  0  0  0
  6 10  1  0  0  0  0
  7 11  1  0  0  0  0
  8 12  2  0  0  0  0
  9 13  2  0  0  0  0
 10 14  2  0  0  0  0
 10 15  1  0  0  0  0
 11 16  2  0  0  0  0
 15 17  1  1  0  0  0
 15 18  1  0  0  0  0
 17 19  1  0  0  0  0
 18 20  1  0  0  0  0
 19 21  2  0  0  0  0
 19 22  1  0  0  0  0
 20 23  2  0  0  0  0
 20 24  1  0  0  0  0
 22 25  1  6  0  0  0
 22 26  1  0  0  0  0
 23 27  1  0  0  0  0
 24 28  2  0  0  0  0
 25 29  1  0  0  0  0
 26 30  1  0  0  0  0
 27 31  2  0  0  0  0
 29 32  2  0  0  0  0
 29 33  1  0  0  0  0
 30 34  1  0  0  0  0
 30 35  1  0  0  0  0
 33 36  1  1  0  0  0
 33 37  1  0  0  0  0
 36 38  1  0  0  0  0
 37 39  1  6  0  0  0
 37 40  1  0  0  0  0
 38 41  2  0  0  0  0
 38 42  1  0  0  0  0
 39 43  1  0  0  0  0
 42 44  1  6  0  0  0
 42 45  1  0  0  0  0
 43 46  1  0  0  0  0
 44 47  1  0  0  0  0
 45 48  1  0  0  0  0
 45 49  1  0  0  0  0
 46 50  2  0  0  0  0
 46 51  1  0  0  0  0
 47 52  2  0  0  0  0
 47 53  1  0  0  0  0
 50 54  1  0  0  0  0
 51 55  2  0  0  0  0
 54 56  2  0  0  0  0
  7  9  1  0  0  0  0
 12 16  1  0  0  0  0
 28 31  1  0  0  0  0
 55 56  1  0  0  0  0
M  END
>  <MolRegNo>
371590

>  <m>
=

>  <Value>
72

>  <Unit>
%

>  <Type>
Inhibition

>  <Ligand Efficiency>


>  <Binding Efficiency>


>  <Surface Efficiency>


>  <Assay Index>
278390

>  <Assay Category>


>  <Assay Organism>
SARS coronavirus

>  <Target ID>
20012

>  <Target Name>
SARS coronavirus 3C-like proteinase

>  <Target Organism>
SARS coronavirus

>  <Target Description>
Target is a single protein chain

>  <Sequence Accession>
P0C6U8

>  <Reference>
J. Med. Chem. 50 (8), 1850-1864 (2007)

>  <Pubmed ID>
17381079

>  <DOI>
10.1021/jm061425k

>  <InChI-Key>
MSVCDURWFSLHBU-XGBZBDDZSA-N

>  <Molecular Formula>
C42H52N6O8

>  <Monoisotopic Mass>
768.384664

>  <Druglikeness>
3.7171

$$$$
Compound 359
Actelion Java MolfileCreator 1.0

 24 27  0  0  0  0  0  0  0  0999 V2000
    0.0000   -0.0000   -0.0000 S   0  0  0  0  0  0  0  0  0  0  0  0
   -1.2210   -0.8535   -0.0000 C   0  0  0  0  0  0  0  0  0  0  0  0
   -0.4742    1.4344   -0.0000 C   0  0  0  0  0  0  0  0  0  0  0  0
   -2.4420    0.0237   -0.0000 N   0  0  0  0  0  0  0  0  0  0  0  0
   -2.5369   -1.5767   -0.0000 C   0  0  0  0  0  0  0  0  0  0  0  0
    0.0593   -1.5885   -0.0000 C   0  0  0  0  0  0  0  0  0  0  0  0
   -1.9797    1.4463   -0.0000 C   0  0  0  0  0  0  0  0  0  0  0  0
   -3.9594    0.0356   -0.0000 C   0  0  0  0  0  0  0  0  0  0  0  0
   -2.5606   -3.0466   -0.0000 C   0  0  0  0  0  0  0  0  0  0  0  0
    0.0356   -3.0703   -0.0000 C   0  0  0  0  0  0  0  0  0  0  0  0
   -2.8688    2.6673   -0.0000 O   0  0  0  0  0  0  0  0  0  0  0  0
   -4.7181    1.3514   -0.0000 N   0  0  0  0  0  0  0  0  0  0  0  0
   -4.7181   -1.2566   -0.0000 C   0  0  0  0  0  0  0  0  0  0  0  0
   -1.2803   -3.7935   -0.0000 N   0  0  0  0  0  0  0  0  0  0  0  0
   -6.2355    1.3633   -0.0000 C   0  0  0  0  0  0  0  0  0  0  0  0
   -6.2355   -1.2566   -0.0000 C   0  0  0  0  0  0  0  0  0  0  0  0
   -1.3040   -5.2753   -0.0000 C   0  0  0  0  0  0  0  0  0  0  0  0
   -6.9942    0.0711   -0.0000 C   0  0  0  0  0  0  0  0  0  0  0  0
   -2.6199   -5.9984   -0.0000 C   0  0  0  0  0  0  0  0  0  0  0  0
   -3.9239   -5.2279   -0.0000 C   0  0  0  0  0  0  0  0  0  0  0  0
   -2.6436   -7.4684   -0.0000 C   0  0  0  0  0  0  0  0  0  0  0  0
   -5.2397   -5.9510   -0.0000 C   0  0  0  0  0  0  0  0  0  0  0  0
   -3.9476   -8.2034   -0.0000 C   0  0  0  0  0  0  0  0  0  0  0  0
   -5.2634   -7.4328   -0.0000 C   0  0  0  0  0  0  0  0  0  0  0  0
  1  2  1  0  0  0  0
  1  3  1  0  0  0  0
  2  4  1  0  0  0  0
  2  5  1  0  0  0  0
  2  6  1  0  0  0  0
  3  7  1  0  0  0  0
  4  8  1  0  0  0  0
  5  9  1  0  0  0  0
  6 10  1  0  0  0  0
  7 11  2  0  0  0  0
  8 12  2  0  0  0  0
  8 13  1  0  0  0  0
  9 14  1  0  0  0  0
 12 15  1  0  0  0  0
 13 16  2  0  0  0  0
 14 17  1  0  0  0  0
 15 18  2  0  0  0  0
 17 19  1  0  0  0  0
 19 20  2  0  0  0  0
 19 21  1  0  0  0  0
 20 22  1  0  0  0  0
 21 23  2  0  0  0  0
 22 24  2  0  0  0  0
  4  7  1  0  0  0  0
 10 14  1  0  0  0  0
 16 18  1  0  0  0  0
 23 24  1  0  0  0  0
M  END
>  <MolRegNo>
453071

>  <m>
<=

>  <Value>
50

>  <Unit>
%

>  <Type>
Inhibition

>  <Ligand Efficiency>


>  <Binding Efficiency>


>  <Surface Efficiency>


>  <Assay Index>
406904

>  <Assay Category>


>  <Assay Organism>
SARS coronavirus

>  <Target ID>
101075

>  <Target Name>
Replicase polyprotein 1ab

>  <Target Organism>
SARS coronavirus

>  <Target Description>
Target is a single protein chain

>  <Sequence Accession>
P0C6X7

>  <Reference>
Bioorg. Med. Chem. Lett. 18 (23), 6110-6114 (2008)

>  <Pubmed ID>
18947995

>  <DOI>
10.1016/j.bmcl.2008.10.023

>  <InChI-Key>
MWLKYUBXVDOPGN-UHFFFAOYSA-N

>  <Molecular Formula>
C19H21N3OS

>  <Monoisotopic Mass>
339.140532

>  <Druglikeness>
6.4163

$$$$
Compound 360
Actelion Java MolfileCreator 1.0

 25 27  0  0  0  0  0  0  0  0999 V2000
    0.0000   -0.0000   -0.0000 Br  0  0  0  0  0  0  0  0  0  0  0  0
    1.2829   -0.7365   -0.0000 C   0  0  0  0  0  0  0  0  0  0  0  0
    2.5658    0.0238   -0.0000 C   0  0  0  0  0  0  0  0  0  0  0  0
    1.2710   -2.2332   -0.0000 C   0  0  0  0  0  0  0  0  0  0  0  0
    3.8486   -0.7127   -0.0000 C   0  0  0  0  0  0  0  0  0  0  0  0
    2.5539    1.5323   -0.0000 C   0  0  0  0  0  0  0  0  0  0  0  0
    2.5539   -2.9696   -0.0000 C   0  0  0  0  0  0  0  0  0  0  0  0
    5.1315    0.0475   -0.0000 Br  0  0  0  0  0  0  0  0  0  0  0  0
    3.8368   -2.2094   -0.0000 C   0  0  0  0  0  0  0  0  0  0  0  0
    3.7417    2.4232   -0.0000 S   0  0  0  0  0  0  0  0  0  0  0  0
    1.3185    2.4113   -0.0000 N   0  0  0  0  0  0  0  0  0  0  0  0
    3.2666    3.8605   -0.0000 C   0  0  0  0  0  0  0  0  0  0  0  0
   -0.1901    2.4113   -0.0000 C   0  0  0  0  0  0  0  0  0  0  0  0
    1.7699    3.8486   -0.0000 C   0  0  0  0  0  0  0  0  0  0  0  0
   -0.9384    1.1166   -0.0000 N   0  0  0  0  0  0  0  0  0  0  0  0
   -0.9503    3.7180   -0.0000 N   0  0  0  0  0  0  0  0  0  0  0  0
    0.8790    5.0721   -0.0000 O   0  0  0  0  0  0  0  0  0  0  0  0
   -2.4470    1.1166   -0.0000 C   0  0  0  0  0  0  0  0  0  0  0  0
   -2.4588    3.7180   -0.0000 C   0  0  0  0  0  0  0  0  0  0  0  0
   -3.2191    2.4232   -0.0000 C   0  0  0  0  0  0  0  0  0  0  0  0
   -3.1953   -0.1782   -0.0000 C   0  0  0  0  0  0  0  0  0  0  0  0
   -3.2309    5.0246   -0.0000 C   0  0  0  0  0  0  0  0  0  0  0  0
   -4.0268   -1.4135   -0.0000 F   0  0  0  0  0  0  0  0  0  0  0  0
   -1.9243   -0.9503   -0.0000 F   0  0  0  0  0  0  0  0  0  0  0  0
   -4.4901    0.6058   -0.0000 F   0  0  0  0  0  0  0  0  0  0  0  0
  1  2  1  0  0  0  0
  2  3  2  0  0  0  0
  2  4  1  0  0  0  0
  3  5  1  0  0  0  0
  3  6  1  0  0  0  0
  4  7  2  0  0  0  0
  5  8  1  0  0  0  0
  5  9  2  0  0  0  0
  6 10  1  0  0  0  0
  6 11  1  0  0  0  0
 10 12  1  0  0  0  0
 11 13  1  0  0  0  0
 11 14  1  0  0  0  0
 13 15  2  0  0  0  0
 13 16  1  0  0  0  0
 14 17  2  0  0  0  0
 15 18  1  0  0  0  0
 16 19  2  0  0  0  0
 18 20  2  0  0  0  0
 18 21  1  0  0  0  0
 19 22  1  0  0  0  0
 21 23  1  0  0  0  0
 21 24  1  0  0  0  0
 21 25  1  0  0  0  0
  7  9  1  0  0  0  0
 12 14  1  0  0  0  0
 19 20  1  0  0  0  0
M  END
>  <MolRegNo>
452857

>  <m>
<=

>  <Value>
50

>  <Unit>
%

>  <Type>
Inhibition

>  <Ligand Efficiency>


>  <Binding Efficiency>


>  <Surface Efficiency>


>  <Assay Index>
406904

>  <Assay Category>


>  <Assay Organism>
SARS coronavirus

>  <Target ID>
101075

>  <Target Name>
Replicase polyprotein 1ab

>  <Target Organism>
SARS coronavirus

>  <Target Description>
Target is a single protein chain

>  <Sequence Accession>
P0C6X7

>  <Reference>
Bioorg. Med. Chem. Lett. 18 (23), 6110-6114 (2008)

>  <Pubmed ID>
18947995

>  <DOI>
10.1016/j.bmcl.2008.10.023

>  <InChI-Key>
MXDXPXDVTLJQTC-UHFFFAOYSA-N

>  <Molecular Formula>
C15H10N3OBr2F3S

>  <Monoisotopic Mass>
494.886338

>  <Druglikeness>
-6.2397

$$$$
Compound 361
Actelion Java MolfileCreator 1.0

 28 28  0  0  1  0  0  0  0  0999 V2000
    0.0000   -0.0000   -0.0000 F   0  0  0  0  0  0  0  0  0  0  0  0
   -1.3030    0.7581   -0.0000 C   0  0  0  0  0  0  0  0  0  0  0  0
   -2.6060    0.0237   -0.0000 C   0  0  0  0  0  0  0  0  0  0  0  0
   -2.6179   -1.4570   -0.0000 O   0  0  0  0  0  0  0  0  0  0  0  0
   -3.9090    0.7818   -0.0000 C   0  0  0  0  0  0  0  0  0  0  0  0
   -5.2120    0.0474   -0.0000 N   0  0  0  0  0  0  0  0  0  0  0  0
   -3.9209    2.2862   -0.0000 C   0  0  0  0  0  0  0  0  0  0  0  0
   -6.5150    0.8055   -0.0000 C   0  0  0  0  0  0  0  0  0  0  0  0
   -2.6415    3.0443   -0.0000 C   0  0  0  0  0  0  0  0  0  0  0  0
   -6.5269    2.3099   -0.0000 O   0  0  0  0  0  0  0  0  0  0  0  0
   -7.8180    0.0711   -0.0000 C   0  0  0  0  0  0  0  0  0  0  0  0
   -2.6534    4.5487   -0.0000 C   0  0  0  0  0  0  0  0  0  0  0  0
   -9.1210    0.8292   -0.0000 N   0  0  0  0  0  0  0  0  0  0  0  0
   -7.8299   -1.4096   -0.0000 C   0  0  0  0  0  0  0  0  0  0  0  0
   -3.9564    5.3068   -0.0000 O   0  0  0  0  0  0  0  0  0  0  0  0
   -1.3741    5.3068   -0.0000 N   0  0  0  0  0  0  0  0  0  0  0  0
  -10.4240    0.0948   -0.0000 C   0  0  0  0  0  0  0  0  0  0  0  0
   -0.0948    4.5724   -0.0000 C   0  0  0  0  0  0  0  0  0  0  0  0
   -1.3859    6.8112   -0.0000 C   0  0  0  0  0  0  0  0  0  0  0  0
  -10.4359   -1.3859   -0.0000 O   0  0  0  0  0  0  0  0  0  0  0  0
  -11.7271    0.8529   -0.0000 O   0  0  0  0  0  0  0  0  0  0  0  0
  -13.0301    0.1185   -0.0000 C   0  0  0  0  0  0  0  0  0  0  0  0
  -14.3331    0.8766   -0.0000 C   0  0  0  0  0  0  0  0  0  0  0  0
  -15.6479    0.1421   -0.0000 C   0  0  0  0  0  0  0  0  0  0  0  0
  -14.3449    2.3928   -0.0000 C   0  0  0  0  0  0  0  0  0  0  0  0
  -16.9509    0.9003   -0.0000 C   0  0  0  0  0  0  0  0  0  0  0  0
  -15.6479    3.1509   -0.0000 C   0  0  0  0  0  0  0  0  0  0  0  0
  -16.9628    2.4165   -0.0000 C   0  0  0  0  0  0  0  0  0  0  0  0
  1  2  1  0  0  0  0
  2  3  1  0  0  0  0
  3  4  2  0  0  0  0
  3  5  1  0  0  0  0
  5  6  1  0  0  0  0
  5  7  1  0  0  0  0
  6  8  1  0  0  0  0
  7  9  1  0  0  0  0
  8 10  2  0  0  0  0
  8 11  1  0  0  0  0
  9 12  1  0  0  0  0
 11 13  1  6  0  0  0
 11 14  1  0  0  0  0
 12 15  2  0  0  0  0
 12 16  1  0  0  0  0
 13 17  1  0  0  0  0
 16 18  1  0  0  0  0
 16 19  1  0  0  0  0
 17 20  2  0  0  0  0
 17 21  1  0  0  0  0
 21 22  1  0  0  0  0
 22 23  1  0  0  0  0
 23 24  2  0  0  0  0
 23 25  1  0  0  0  0
 24 26  1  0  0  0  0
 25 27  2  0  0  0  0
 26 28  2  0  0  0  0
 27 28  1  0  0  0  0
M  END
>  <MolRegNo>
338252

>  <m>
>

>  <Value>
1.0e5

>  <Unit>
nM

>  <Type>
EC50

>  <Ligand Efficiency>


>  <Binding Efficiency>


>  <Surface Efficiency>


>  <Assay Index>
256674

>  <Assay Category>


>  <Assay Organism>
SARS coronavirus

>  <Target ID>
100499

>  <Target Name>
SARS coronavirus

>  <Target Organism>
SARS coronavirus

>  <Target Description>
Target is a complete organism

>  <Sequence Accession>


>  <Reference>
J. Med. Chem. 49 (3), 1198-1201 (2006)

>  <Pubmed ID>
16451084

>  <DOI>
10.1021/jm0507678

>  <InChI-Key>
NBTZKNVHPWRYEI-CFMCSPIPSA-N

>  <Molecular Formula>
C19H26N3O5F

>  <Monoisotopic Mass>
395.185650

>  <Druglikeness>
-10.95

$$$$
Compound 362
Actelion Java MolfileCreator 1.0

 28 28  0  0  1  0  0  0  0  0999 V2000
    0.0000   -0.0000   -0.0000 F   0  0  0  0  0  0  0  0  0  0  0  0
   -1.3030    0.7581   -0.0000 C   0  0  0  0  0  0  0  0  0  0  0  0
   -2.6060    0.0237   -0.0000 C   0  0  0  0  0  0  0  0  0  0  0  0
   -2.6179   -1.4570   -0.0000 O   0  0  0  0  0  0  0  0  0  0  0  0
   -3.9090    0.7818   -0.0000 C   0  0  0  0  0  0  0  0  0  0  0  0
   -5.2120    0.0474   -0.0000 N   0  0  0  0  0  0  0  0  0  0  0  0
   -3.9209    2.2862   -0.0000 C   0  0  0  0  0  0  0  0  0  0  0  0
   -6.5150    0.8055   -0.0000 C   0  0  0  0  0  0  0  0  0  0  0  0
   -2.6415    3.0443   -0.0000 C   0  0  0  0  0  0  0  0  0  0  0  0
   -6.5269    2.3099   -0.0000 O   0  0  0  0  0  0  0  0  0  0  0  0
   -7.8180    0.0711   -0.0000 C   0  0  0  0  0  0  0  0  0  0  0  0
   -2.6534    4.5487   -0.0000 C   0  0  0  0  0  0  0  0  0  0  0  0
   -9.1210    0.8292   -0.0000 N   0  0  0  0  0  0  0  0  0  0  0  0
   -7.8299   -1.4096   -0.0000 C   0  0  0  0  0  0  0  0  0  0  0  0
   -3.9564    5.3068   -0.0000 O   0  0  0  0  0  0  0  0  0  0  0  0
   -1.3741    5.3068   -0.0000 N   0  0  0  0  0  0  0  0  0  0  0  0
  -10.4240    0.0948   -0.0000 C   0  0  0  0  0  0  0  0  0  0  0  0
   -0.0948    4.5724   -0.0000 C   0  0  0  0  0  0  0  0  0  0  0  0
   -1.3859    6.8112   -0.0000 C   0  0  0  0  0  0  0  0  0  0  0  0
  -10.4359   -1.3859   -0.0000 O   0  0  0  0  0  0  0  0  0  0  0  0
  -11.7271    0.8529   -0.0000 O   0  0  0  0  0  0  0  0  0  0  0  0
  -13.0301    0.1185   -0.0000 C   0  0  0  0  0  0  0  0  0  0  0  0
  -14.3331    0.8766   -0.0000 C   0  0  0  0  0  0  0  0  0  0  0  0
  -15.6479    0.1421   -0.0000 C   0  0  0  0  0  0  0  0  0  0  0  0
  -14.3449    2.3928   -0.0000 C   0  0  0  0  0  0  0  0  0  0  0  0
  -16.9509    0.9003   -0.0000 C   0  0  0  0  0  0  0  0  0  0  0  0
  -15.6479    3.1509   -0.0000 C   0  0  0  0  0  0  0  0  0  0  0  0
  -16.9628    2.4165   -0.0000 C   0  0  0  0  0  0  0  0  0  0  0  0
  1  2  1  0  0  0  0
  2  3  1  0  0  0  0
  3  4  2  0  0  0  0
  3  5  1  0  0  0  0
  5  6  1  0  0  0  0
  5  7  1  0  0  0  0
  6  8  1  0  0  0  0
  7  9  1  0  0  0  0
  8 10  2  0  0  0  0
  8 11  1  0  0  0  0
  9 12  1  0  0  0  0
 11 13  1  6  0  0  0
 11 14  1  0  0  0  0
 12 15  2  0  0  0  0
 12 16  1  0  0  0  0
 13 17  1  0  0  0  0
 16 18  1  0  0  0  0
 16 19  1  0  0  0  0
 17 20  2  0  0  0  0
 17 21  1  0  0  0  0
 21 22  1  0  0  0  0
 22 23  1  0  0  0  0
 23 24  2  0  0  0  0
 23 25  1  0  0  0  0
 24 26  1  0  0  0  0
 25 27  2  0  0  0  0
 26 28  2  0  0  0  0
 27 28  1  0  0  0  0
M  END
>  <MolRegNo>
338252

>  <m>
>

>  <Value>
1.0e5

>  <Unit>
nM

>  <Type>
EC50

>  <Ligand Efficiency>


>  <Binding Efficiency>


>  <Surface Efficiency>


>  <Assay Index>
256675

>  <Assay Category>


>  <Assay Organism>
SARS coronavirus

>  <Target ID>
100499

>  <Target Name>
SARS coronavirus

>  <Target Organism>
SARS coronavirus

>  <Target Description>
Target is a complete organism

>  <Sequence Accession>


>  <Reference>
J. Med. Chem. 49 (3), 1198-1201 (2006)

>  <Pubmed ID>
16451084

>  <DOI>
10.1021/jm0507678

>  <InChI-Key>
NBTZKNVHPWRYEI-CFMCSPIPSA-N

>  <Molecular Formula>
C19H26N3O5F

>  <Monoisotopic Mass>
395.185650

>  <Druglikeness>
-10.95

$$$$
Compound 363
Actelion Java MolfileCreator 1.0

 28 28  0  0  1  0  0  0  0  0999 V2000
    0.0000   -0.0000   -0.0000 F   0  0  0  0  0  0  0  0  0  0  0  0
   -1.3030    0.7581   -0.0000 C   0  0  0  0  0  0  0  0  0  0  0  0
   -2.6060    0.0237   -0.0000 C   0  0  0  0  0  0  0  0  0  0  0  0
   -2.6179   -1.4570   -0.0000 O   0  0  0  0  0  0  0  0  0  0  0  0
   -3.9090    0.7818   -0.0000 C   0  0  0  0  0  0  0  0  0  0  0  0
   -5.2120    0.0474   -0.0000 N   0  0  0  0  0  0  0  0  0  0  0  0
   -3.9209    2.2862   -0.0000 C   0  0  0  0  0  0  0  0  0  0  0  0
   -6.5150    0.8055   -0.0000 C   0  0  0  0  0  0  0  0  0  0  0  0
   -2.6415    3.0443   -0.0000 C   0  0  0  0  0  0  0  0  0  0  0  0
   -6.5269    2.3099   -0.0000 O   0  0  0  0  0  0  0  0  0  0  0  0
   -7.8180    0.0711   -0.0000 C   0  0  0  0  0  0  0  0  0  0  0  0
   -2.6534    4.5487   -0.0000 C   0  0  0  0  0  0  0  0  0  0  0  0
   -9.1210    0.8292   -0.0000 N   0  0  0  0  0  0  0  0  0  0  0  0
   -7.8299   -1.4096   -0.0000 C   0  0  0  0  0  0  0  0  0  0  0  0
   -3.9564    5.3068   -0.0000 O   0  0  0  0  0  0  0  0  0  0  0  0
   -1.3741    5.3068   -0.0000 N   0  0  0  0  0  0  0  0  0  0  0  0
  -10.4240    0.0948   -0.0000 C   0  0  0  0  0  0  0  0  0  0  0  0
   -0.0948    4.5724   -0.0000 C   0  0  0  0  0  0  0  0  0  0  0  0
   -1.3859    6.8112   -0.0000 C   0  0  0  0  0  0  0  0  0  0  0  0
  -10.4359   -1.3859   -0.0000 O   0  0  0  0  0  0  0  0  0  0  0  0
  -11.7271    0.8529   -0.0000 O   0  0  0  0  0  0  0  0  0  0  0  0
  -13.0301    0.1185   -0.0000 C   0  0  0  0  0  0  0  0  0  0  0  0
  -14.3331    0.8766   -0.0000 C   0  0  0  0  0  0  0  0  0  0  0  0
  -15.6479    0.1421   -0.0000 C   0  0  0  0  0  0  0  0  0  0  0  0
  -14.3449    2.3928   -0.0000 C   0  0  0  0  0  0  0  0  0  0  0  0
  -16.9509    0.9003   -0.0000 C   0  0  0  0  0  0  0  0  0  0  0  0
  -15.6479    3.1509   -0.0000 C   0  0  0  0  0  0  0  0  0  0  0  0
  -16.9628    2.4165   -0.0000 C   0  0  0  0  0  0  0  0  0  0  0  0
  1  2  1  0  0  0  0
  2  3  1  0  0  0  0
  3  4  2  0  0  0  0
  3  5  1  0  0  0  0
  5  6  1  0  0  0  0
  5  7  1  0  0  0  0
  6  8  1  0  0  0  0
  7  9  1  0  0  0  0
  8 10  2  0  0  0  0
  8 11  1  0  0  0  0
  9 12  1  0  0  0  0
 11 13  1  6  0  0  0
 11 14  1  0  0  0  0
 12 15  2  0  0  0  0
 12 16  1  0  0  0  0
 13 17  1  0  0  0  0
 16 18  1  0  0  0  0
 16 19  1  0  0  0  0
 17 20  2  0  0  0  0
 17 21  1  0  0  0  0
 21 22  1  0  0  0  0
 22 23  1  0  0  0  0
 23 24  2  0  0  0  0
 23 25  1  0  0  0  0
 24 26  1  0  0  0  0
 25 27  2  0  0  0  0
 26 28  2  0  0  0  0
 27 28  1  0  0  0  0
M  END
>  <MolRegNo>
338252

>  <m>
>

>  <Value>
1.0e5

>  <Unit>
nM

>  <Type>
EC50

>  <Ligand Efficiency>


>  <Binding Efficiency>


>  <Surface Efficiency>


>  <Assay Index>
256676

>  <Assay Category>


>  <Assay Organism>
SARS coronavirus

>  <Target ID>
100499

>  <Target Name>
SARS coronavirus

>  <Target Organism>
SARS coronavirus

>  <Target Description>
Target is a complete organism

>  <Sequence Accession>


>  <Reference>
J. Med. Chem. 49 (3), 1198-1201 (2006)

>  <Pubmed ID>
16451084

>  <DOI>
10.1021/jm0507678

>  <InChI-Key>
NBTZKNVHPWRYEI-CFMCSPIPSA-N

>  <Molecular Formula>
C19H26N3O5F

>  <Monoisotopic Mass>
395.185650

>  <Druglikeness>
-10.95

$$$$
Compound 364
Actelion Java MolfileCreator 1.0

 24 27  0  0  0  0  0  0  0  0999 V2000
    0.0000   -0.0000   -0.0000 O   0  0  0  0  0  0  0  0  0  0  0  0
    1.2942    0.7599   -0.0000 N   0  0  0  0  0  0  0  0  0  0  0  0
    1.2824    2.2798   -0.0000 O   0  0  0  0  0  0  0  0  0  0  0  0
    2.5885    0.0237   -0.0000 C   0  0  0  0  0  0  0  0  0  0  0  0
    3.8827    0.7837   -0.0000 C   0  0  0  0  0  0  0  0  0  0  0  0
    2.5766   -1.4723   -0.0000 C   0  0  0  0  0  0  0  0  0  0  0  0
    5.1769    0.0475   -0.0000 C   0  0  0  0  0  0  0  0  0  0  0  0
    3.8708   -2.2204   -0.0000 C   0  0  0  0  0  0  0  0  0  0  0  0
    6.6018    0.5343   -0.0000 C   0  0  0  0  0  0  0  0  0  0  0  0
    5.1651   -1.4486   -0.0000 C   0  0  0  0  0  0  0  0  0  0  0  0
    7.0411    1.9710   -0.0000 O   0  0  0  0  0  0  0  0  0  0  0  0
    7.4805   -0.6887   -0.0000 C   0  0  0  0  0  0  0  0  0  0  0  0
    6.5899   -1.8879   -0.0000 N   0  0  0  0  0  0  0  0  0  0  0  0
    8.9765   -0.6768   -0.0000 O   0  0  0  0  0  0  0  0  0  0  0  0
    7.0530   -3.3128   -0.0000 C   0  0  0  0  0  0  0  0  0  0  0  0
    6.0200   -4.4170   -0.0000 C   0  0  0  0  0  0  0  0  0  0  0  0
    6.3287   -5.8775   -0.0000 O   0  0  0  0  0  0  0  0  0  0  0  0
    4.5239   -4.2508   -0.0000 C   0  0  0  0  0  0  0  0  0  0  0  0
    5.0107   -6.6018   -0.0000 C   0  0  0  0  0  0  0  0  0  0  0  0
    3.8946   -5.6044   -0.0000 C   0  0  0  0  0  0  0  0  0  0  0  0
    4.6901   -8.0623   -0.0000 C   0  0  0  0  0  0  0  0  0  0  0  0
    2.4579   -6.0437   -0.0000 C   0  0  0  0  0  0  0  0  0  0  0  0
    3.2415   -8.5135   -0.0000 C   0  0  0  0  0  0  0  0  0  0  0  0
    2.1373   -7.5161   -0.0000 C   0  0  0  0  0  0  0  0  0  0  0  0
  1  2  2  0  0  0  0
  2  3  1  0  0  0  0
  2  4  1  0  0  0  0
  4  5  2  0  0  0  0
  4  6  1  0  0  0  0
  5  7  1  0  0  0  0
  6  8  2  0  0  0  0
  7  9  1  0  0  0  0
  7 10  2  0  0  0  0
  9 11  2  0  0  0  0
  9 12  1  0  0  0  0
 10 13  1  0  0  0  0
 12 14  2  0  0  0  0
 13 15  1  0  0  0  0
 15 16  1  0  0  0  0
 16 17  1  0  0  0  0
 16 18  2  0  0  0  0
 17 19  1  0  0  0  0
 18 20  1  0  0  0  0
 19 21  1  0  0  0  0
 20 22  1  0  0  0  0
 21 23  2  0  0  0  0
 22 24  2  0  0  0  0
  8 10  1  0  0  0  0
 12 13  1  0  0  0  0
 19 20  2  0  0  0  0
 23 24  1  0  0  0  0
M  CHG  2   2   1   3  -1
M  END
>  <MolRegNo>
316295

>  <m>
=

>  <Value>
24

>  <Unit>
%

>  <Type>
Inhibition

>  <Ligand Efficiency>


>  <Binding Efficiency>


>  <Surface Efficiency>


>  <Assay Index>
240686

>  <Assay Category>


>  <Assay Organism>
SARS coronavirus

>  <Target ID>
20012

>  <Target Name>
SARS coronavirus 3C-like proteinase

>  <Target Organism>
SARS coronavirus

>  <Target Description>
Target is a single protein chain

>  <Sequence Accession>
P0C6U8

>  <Reference>
Bioorg. Med. Chem. Lett. 15 (12), 3058-3062 (2005)

>  <Pubmed ID>
15896959

>  <DOI>
10.1016/j.bmcl.2005.04.027

>  <InChI-Key>
NCSVSLHTQYQRAR-UHFFFAOYSA-N

>  <Molecular Formula>
C17H10N2O5

>  <Monoisotopic Mass>
322.058973

>  <Druglikeness>
-4.8128

$$$$
Compound 365
Actelion Java MolfileCreator 1.0

 29 31  0  0  1  0  0  0  0  0999 V2000
    0.0000   -0.0000   -0.0000 O   0  0  0  0  0  0  0  0  0  0  0  0
   -0.0119    1.5211   -0.0000 C   0  0  0  0  0  0  0  0  0  0  0  0
   -1.3309    2.2816   -0.0000 O   0  0  0  0  0  0  0  0  0  0  0  0
    1.2834    2.2816   -0.0000 C   0  0  0  0  0  0  0  0  0  0  0  0
   -1.3428    3.8026   -0.0000 C   0  0  0  0  0  0  0  0  0  0  0  0
    2.0202    3.6006   -0.0000 O   0  0  0  0  0  0  0  0  0  0  0  0
    2.7807    2.2935   -0.0000 C   0  0  0  0  0  0  0  0  0  0  0  0
   -2.6619    4.5632   -0.0000 C   0  0  0  0  0  0  0  0  0  0  0  0
    4.0641    1.5567   -0.0000 C   0  0  0  0  0  0  0  0  0  0  0  0
    4.0522    0.0594   -0.0000 O   0  0  0  0  0  0  0  0  0  0  0  0
    5.3594    2.3172   -0.0000 N   0  0  0  0  0  0  0  0  0  0  0  0
    6.6428    1.5805   -0.0000 C   0  0  0  0  0  0  0  0  0  0  0  0
    7.9380    2.3410   -0.0000 C   0  0  0  0  0  0  0  0  0  0  0  0
    6.6309    0.0832   -0.0000 C   0  0  0  0  0  0  0  0  0  0  0  0
    7.9261    3.8621   -0.0000 O   0  0  0  0  0  0  0  0  0  0  0  0
    9.2333    1.6042   -0.0000 O   0  0  0  0  0  0  0  0  0  0  0  0
    7.9261   -0.6536   -0.0000 C   0  0  0  0  0  0  0  0  0  0  0  0
   10.5286    2.3648   -0.0000 C   0  0  0  0  0  0  0  0  0  0  0  0
    7.9143   -2.1509   -0.0000 C   0  0  0  0  0  0  0  0  0  0  0  0
    9.2214    0.1069   -0.0000 C   0  0  0  0  0  0  0  0  0  0  0  0
   11.8239    1.6280   -0.0000 C   0  0  0  0  0  0  0  0  0  0  0  0
    9.2095   -2.8876   -0.0000 C   0  0  0  0  0  0  0  0  0  0  0  0
   10.5167   -0.6298   -0.0000 C   0  0  0  0  0  0  0  0  0  0  0  0
   11.8001    0.1307   -0.0000 C   0  0  0  0  0  0  0  0  0  0  0  0
   13.1073    2.3885   -0.0000 C   0  0  0  0  0  0  0  0  0  0  0  0
   10.4929   -2.1271   -0.0000 C   0  0  0  0  0  0  0  0  0  0  0  0
   13.0954   -0.6060   -0.0000 C   0  0  0  0  0  0  0  0  0  0  0  0
   14.4025    1.6518   -0.0000 C   0  0  0  0  0  0  0  0  0  0  0  0
   14.3906    0.1545   -0.0000 C   0  0  0  0  0  0  0  0  0  0  0  0
  1  2  2  0  0  0  0
  2  3  1  0  0  0  0
  2  4  1  0  0  0  0
  3  5  1  0  0  0  0
  4  6  1  0  0  0  0
  4  7  1  0  0  0  0
  5  8  1  0  0  0  0
  7  9  1  0  0  0  0
  9 10  2  0  0  0  0
  9 11  1  0  0  0  0
 12 11  1  6  0  0  0
 12 13  1  0  0  0  0
 12 14  1  0  0  0  0
 13 15  2  0  0  0  0
 13 16  1  0  0  0  0
 14 17  1  0  0  0  0
 16 18  1  0  0  0  0
 17 19  2  0  0  0  0
 17 20  1  0  0  0  0
 18 21  1  0  0  0  0
 19 22  1  0  0  0  0
 20 23  2  0  0  0  0
 21 24  2  0  0  0  0
 21 25  1  0  0  0  0
 22 26  2  0  0  0  0
 24 27  1  0  0  0  0
 25 28  2  0  0  0  0
 27 29  2  0  0  0  0
  6  7  1  0  0  0  0
 23 26  1  0  0  0  0
 28 29  1  0  0  0  0
M  END
>  <MolRegNo>
333821

>  <m>
=

>  <Value>
22

>  <Unit>
%

>  <Type>
Inhibition

>  <Ligand Efficiency>


>  <Binding Efficiency>


>  <Surface Efficiency>


>  <Assay Index>
254531

>  <Assay Category>


>  <Assay Organism>
SARS coronavirus

>  <Target ID>
20012

>  <Target Name>
SARS coronavirus 3C-like proteinase

>  <Target Organism>
SARS coronavirus

>  <Target Description>
Target is a single protein chain

>  <Sequence Accession>
P0C6U8

>  <Reference>
Bioorg. Med. Chem. Lett. 15 (24), 5365-5369 (2005)

>  <Pubmed ID>
16216498

>  <DOI>
10.1016/j.bmcl.2005.09.012

>  <InChI-Key>
NFVJQUGMUOPQGN-VIQWUECVSA-N

>  <Molecular Formula>
C22H23NO6

>  <Monoisotopic Mass>
397.152539

>  <Druglikeness>
0.48972

$$$$
Compound 366
Actelion Java MolfileCreator 1.0

 27 30  0  0  0  0  0  0  0  0999 V2000
    0.0000   -0.0000   -0.0000 I   0  0  0  0  0  0  0  0  0  0  0  0
    1.2947   -0.7364   -0.0000 C   0  0  0  0  0  0  0  0  0  0  0  0
    2.5893    0.0475   -0.0000 C   0  0  0  0  0  0  0  0  0  0  0  0
    1.2828   -2.2330   -0.0000 C   0  0  0  0  0  0  0  0  0  0  0  0
    3.8840   -0.6889   -0.0000 C   0  0  0  0  0  0  0  0  0  0  0  0
    2.5775   -2.9813   -0.0000 C   0  0  0  0  0  0  0  0  0  0  0  0
    5.3093   -0.2138   -0.0000 C   0  0  0  0  0  0  0  0  0  0  0  0
    3.8721   -2.1855   -0.0000 C   0  0  0  0  0  0  0  0  0  0  0  0
    5.7488    1.2353   -0.0000 O   0  0  0  0  0  0  0  0  0  0  0  0
    6.1883   -1.4253   -0.0000 C   0  0  0  0  0  0  0  0  0  0  0  0
    5.2975   -2.6487   -0.0000 N   0  0  0  0  0  0  0  0  0  0  0  0
    7.6849   -1.4134   -0.0000 O   0  0  0  0  0  0  0  0  0  0  0  0
    5.7607   -4.0741   -0.0000 C   0  0  0  0  0  0  0  0  0  0  0  0
    7.2217   -4.3710   -0.0000 C   0  0  0  0  0  0  0  0  0  0  0  0
    8.3263   -3.3495   -0.0000 S   0  0  0  0  0  0  0  0  0  0  0  0
    7.8155   -5.7251   -0.0000 C   0  0  0  0  0  0  0  0  0  0  0  0
    9.6210   -4.0978   -0.0000 C   0  0  0  0  0  0  0  0  0  0  0  0
    9.3003   -5.5588   -0.0000 C   0  0  0  0  0  0  0  0  0  0  0  0
   10.9750   -3.4683   -0.0000 C   0  0  0  0  0  0  0  0  0  0  0  0
   11.1176   -1.9479   -0.0000 O   0  0  0  0  0  0  0  0  0  0  0  0
   12.1865   -4.3354   -0.0000 N   0  0  0  0  0  0  0  0  0  0  0  0
   13.5525   -3.7177   -0.0000 C   0  0  0  0  0  0  0  0  0  0  0  0
   13.6950   -2.1974   -0.0000 C   0  0  0  0  0  0  0  0  0  0  0  0
   14.7521   -4.5967   -0.0000 C   0  0  0  0  0  0  0  0  0  0  0  0
   15.0610   -1.5797   -0.0000 C   0  0  0  0  0  0  0  0  0  0  0  0
   16.1062   -3.9672   -0.0000 C   0  0  0  0  0  0  0  0  0  0  0  0
   16.2606   -2.4587   -0.0000 C   0  0  0  0  0  0  0  0  0  0  0  0
  1  2  1  0  0  0  0
  2  3  2  0  0  0  0
  2  4  1  0  0  0  0
  3  5  1  0  0  0  0
  4  6  2  0  0  0  0
  5  7  1  0  0  0  0
  5  8  2  0  0  0  0
  7  9  2  0  0  0  0
  7 10  1  0  0  0  0
  8 11  1  0  0  0  0
 10 12  2  0  0  0  0
 11 13  1  0  0  0  0
 13 14  1  0  0  0  0
 14 15  1  0  0  0  0
 14 16  2  0  0  0  0
 15 17  1  0  0  0  0
 16 18  1  0  0  0  0
 17 19  1  0  0  0  0
 19 20  2  0  0  0  0
 19 21  1  0  0  0  0
 21 22  1  0  0  0  0
 22 23  1  0  0  0  0
 22 24  1  0  0  0  0
 23 25  1  0  0  0  0
 24 26  1  0  0  0  0
 25 27  1  0  0  0  0
  6  8  1  0  0  0  0
 10 11  1  0  0  0  0
 17 18  2  0  0  0  0
 26 27  1  0  0  0  0
M  END
>  <MolRegNo>
317655

>  <m>
=

>  <Value>
36

>  <Unit>
%

>  <Type>
Inhibition

>  <Ligand Efficiency>


>  <Binding Efficiency>


>  <Surface Efficiency>


>  <Assay Index>
240686

>  <Assay Category>


>  <Assay Organism>
SARS coronavirus

>  <Target ID>
20012

>  <Target Name>
SARS coronavirus 3C-like proteinase

>  <Target Organism>
SARS coronavirus

>  <Target Description>
Target is a single protein chain

>  <Sequence Accession>
P0C6U8

>  <Reference>
Bioorg. Med. Chem. Lett. 15 (12), 3058-3062 (2005)

>  <Pubmed ID>
15896959

>  <DOI>
10.1016/j.bmcl.2005.04.027

>  <InChI-Key>
NGXZDZLIARDBJM-UHFFFAOYSA-N

>  <Molecular Formula>
C20H19N2O3IS

>  <Monoisotopic Mass>
494.016111

>  <Druglikeness>
-2.0178

$$$$
Compound 367
Actelion Java MolfileCreator 1.0

 32 35  0  0  0  0  0  0  0  0999 V2000
    0.0000   -0.0000   -0.0000 Cl  0  0  0  0  0  0  0  0  0  0  0  0
   -0.0119    1.5141   -0.0000 C   0  0  0  0  0  0  0  0  0  0  0  0
    1.2876    2.2771   -0.0000 C   0  0  0  0  0  0  0  0  0  0  0  0
   -1.3234    2.2771   -0.0000 C   0  0  0  0  0  0  0  0  0  0  0  0
    2.5752    1.5380   -0.0000 N   0  0  0  0  0  0  0  0  0  0  0  0
    1.2757    3.8032   -0.0000 C   0  0  0  0  0  0  0  0  0  0  0  0
   -1.3353    3.7912   -0.0000 C   0  0  0  0  0  0  0  0  0  0  0  0
    3.8628    2.3010   -0.0000 C   0  0  0  0  0  0  0  0  0  0  0  0
   -0.0477    4.5543   -0.0000 C   0  0  0  0  0  0  0  0  0  0  0  0
    3.8508    3.8151   -0.0000 O   0  0  0  0  0  0  0  0  0  0  0  0
    5.1504    1.5618   -0.0000 C   0  0  0  0  0  0  0  0  0  0  0  0
    6.4379    2.3248   -0.0000 S   0  0  0  0  0  0  0  0  0  0  0  0
    7.7255    1.5856   -0.0000 C   0  0  0  0  0  0  0  0  0  0  0  0
    9.0012    2.3606   -0.0000 N   0  0  0  0  0  0  0  0  0  0  0  0
    7.7017    0.0954   -0.0000 N   0  0  0  0  0  0  0  0  0  0  0  0
   10.2888    1.6333   -0.0000 C   0  0  0  0  0  0  0  0  0  0  0  0
    8.9893   -0.6438   -0.0000 C   0  0  0  0  0  0  0  0  0  0  0  0
   11.5764    2.4083   -0.0000 C   0  0  0  0  0  0  0  0  0  0  0  0
   10.2888    0.1311   -0.0000 C   0  0  0  0  0  0  0  0  0  0  0  0
   11.7195    3.9105   -0.0000 C   0  0  0  0  0  0  0  0  0  0  0  0
   12.9474    1.8122   -0.0000 C   0  0  0  0  0  0  0  0  0  0  0  0
   13.1740    4.2443   -0.0000 S   0  0  0  0  0  0  0  0  0  0  0  0
   10.5868    4.9238   -0.0000 S   0  0  0  0  0  0  0  0  0  0  0  0
   13.9370    2.9448   -0.0000 C   0  0  0  0  0  0  0  0  0  0  0  0
   13.2574    0.3577   -0.0000 C   0  0  0  0  0  0  0  0  0  0  0  0
   10.8849    6.4022   -0.0000 C   0  0  0  0  0  0  0  0  0  0  0  0
   15.4153    2.8017   -0.0000 C   0  0  0  0  0  0  0  0  0  0  0  0
   16.1664    1.5141   -0.0000 S   0  0  0  0  0  0  0  0  0  0  0  0
   16.4048    3.9224   -0.0000 N   0  0  0  0  0  0  0  0  0  0  0  0
   17.6209    1.8479   -0.0000 C   0  0  0  0  0  0  0  0  0  0  0  0
   17.7759    3.3382   -0.0000 C   0  0  0  0  0  0  0  0  0  0  0  0
   19.0635    4.1131   -0.0000 C   0  0  0  0  0  0  0  0  0  0  0  0
  1  2  1  0  0  0  0
  2  3  2  0  0  0  0
  2  4  1  0  0  0  0
  3  5  1  0  0  0  0
  3  6  1  0  0  0  0
  4  7  2  0  0  0  0
  5  8  1  0  0  0  0
  6  9  2  0  0  0  0
  8 10  2  0  0  0  0
  8 11  1  0  0  0  0
 11 12  1  0  0  0  0
 12 13  1  0  0  0  0
 13 14  2  0  0  0  0
 13 15  1  0  0  0  0
 14 16  1  0  0  0  0
 15 17  2  0  0  0  0
 16 18  1  0  0  0  0
 16 19  2  0  0  0  0
 18 20  2  0  0  0  0
 18 21  1  0  0  0  0
 20 22  1  0  0  0  0
 20 23  1  0  0  0  0
 21 24  2  0  0  0  0
 21 25  1  0  0  0  0
 23 26  1  0  0  0  0
 24 27  1  0  0  0  0
 27 28  1  0  0  0  0
 27 29  2  0  0  0  0
 28 30  1  0  0  0  0
 29 31  1  0  0  0  0
 31 32  1  0  0  0  0
  7  9  1  0  0  0  0
 17 19  1  0  0  0  0
 22 24  1  0  0  0  0
 30 31  2  0  0  0  0
M  END
>  <MolRegNo>
349571

>  <m>
=

>  <Value>
8.3176e13

>  <Unit>
nM

>  <Type>
IC50

>  <Ligand Efficiency>


>  <Binding Efficiency>


>  <Surface Efficiency>


>  <Assay Index>
262926

>  <Assay Category>


>  <Assay Organism>
SARS coronavirus

>  <Target ID>
20012

>  <Target Name>
SARS coronavirus 3C-like proteinase

>  <Target Organism>
SARS coronavirus

>  <Target Description>
Target is a single protein chain

>  <Sequence Accession>
P0C6U8

>  <Reference>
J. Med. Chem. 49 (12), 3485-3495 (2006)

>  <Pubmed ID>
16759091

>  <DOI>
10.1021/jm050852f

>  <InChI-Key>
NNVVKOVHRSDRSQ-UHFFFAOYSA-N

>  <Molecular Formula>
C22H19N4OClS4

>  <Monoisotopic Mass>
518.013018

>  <Druglikeness>
3.7138

$$$$
Compound 368
Actelion Java MolfileCreator 1.0

 32 35  0  0  0  0  0  0  0  0999 V2000
    0.0000   -0.0000   -0.0000 Cl  0  0  0  0  0  0  0  0  0  0  0  0
   -0.0119    1.5141   -0.0000 C   0  0  0  0  0  0  0  0  0  0  0  0
    1.2876    2.2771   -0.0000 C   0  0  0  0  0  0  0  0  0  0  0  0
   -1.3234    2.2771   -0.0000 C   0  0  0  0  0  0  0  0  0  0  0  0
    2.5752    1.5380   -0.0000 N   0  0  0  0  0  0  0  0  0  0  0  0
    1.2757    3.8032   -0.0000 C   0  0  0  0  0  0  0  0  0  0  0  0
   -1.3353    3.7912   -0.0000 C   0  0  0  0  0  0  0  0  0  0  0  0
    3.8628    2.3010   -0.0000 C   0  0  0  0  0  0  0  0  0  0  0  0
   -0.0477    4.5543   -0.0000 C   0  0  0  0  0  0  0  0  0  0  0  0
    3.8508    3.8151   -0.0000 O   0  0  0  0  0  0  0  0  0  0  0  0
    5.1504    1.5618   -0.0000 C   0  0  0  0  0  0  0  0  0  0  0  0
    6.4379    2.3248   -0.0000 S   0  0  0  0  0  0  0  0  0  0  0  0
    7.7255    1.5856   -0.0000 C   0  0  0  0  0  0  0  0  0  0  0  0
    9.0012    2.3606   -0.0000 N   0  0  0  0  0  0  0  0  0  0  0  0
    7.7017    0.0954   -0.0000 N   0  0  0  0  0  0  0  0  0  0  0  0
   10.2888    1.6333   -0.0000 C   0  0  0  0  0  0  0  0  0  0  0  0
    8.9893   -0.6438   -0.0000 C   0  0  0  0  0  0  0  0  0  0  0  0
   11.5764    2.4083   -0.0000 C   0  0  0  0  0  0  0  0  0  0  0  0
   10.2888    0.1311   -0.0000 C   0  0  0  0  0  0  0  0  0  0  0  0
   11.7195    3.9105   -0.0000 C   0  0  0  0  0  0  0  0  0  0  0  0
   12.9474    1.8122   -0.0000 C   0  0  0  0  0  0  0  0  0  0  0  0
   13.1740    4.2443   -0.0000 S   0  0  0  0  0  0  0  0  0  0  0  0
   10.5868    4.9238   -0.0000 S   0  0  0  0  0  0  0  0  0  0  0  0
   13.9370    2.9448   -0.0000 C   0  0  0  0  0  0  0  0  0  0  0  0
   13.2574    0.3577   -0.0000 C   0  0  0  0  0  0  0  0  0  0  0  0
   10.8849    6.4022   -0.0000 C   0  0  0  0  0  0  0  0  0  0  0  0
   15.4153    2.8017   -0.0000 C   0  0  0  0  0  0  0  0  0  0  0  0
   16.1664    1.5141   -0.0000 S   0  0  0  0  0  0  0  0  0  0  0  0
   16.4048    3.9224   -0.0000 N   0  0  0  0  0  0  0  0  0  0  0  0
   17.6209    1.8479   -0.0000 C   0  0  0  0  0  0  0  0  0  0  0  0
   17.7759    3.3382   -0.0000 C   0  0  0  0  0  0  0  0  0  0  0  0
   19.0635    4.1131   -0.0000 C   0  0  0  0  0  0  0  0  0  0  0  0
  1  2  1  0  0  0  0
  2  3  2  0  0  0  0
  2  4  1  0  0  0  0
  3  5  1  0  0  0  0
  3  6  1  0  0  0  0
  4  7  2  0  0  0  0
  5  8  1  0  0  0  0
  6  9  2  0  0  0  0
  8 10  2  0  0  0  0
  8 11  1  0  0  0  0
 11 12  1  0  0  0  0
 12 13  1  0  0  0  0
 13 14  2  0  0  0  0
 13 15  1  0  0  0  0
 14 16  1  0  0  0  0
 15 17  2  0  0  0  0
 16 18  1  0  0  0  0
 16 19  2  0  0  0  0
 18 20  2  0  0  0  0
 18 21  1  0  0  0  0
 20 22  1  0  0  0  0
 20 23  1  0  0  0  0
 21 24  2  0  0  0  0
 21 25  1  0  0  0  0
 23 26  1  0  0  0  0
 24 27  1  0  0  0  0
 27 28  1  0  0  0  0
 27 29  2  0  0  0  0
 28 30  1  0  0  0  0
 29 31  1  0  0  0  0
 31 32  1  0  0  0  0
  7  9  1  0  0  0  0
 17 19  1  0  0  0  0
 22 24  1  0  0  0  0
 30 31  2  0  0  0  0
M  END
>  <MolRegNo>
349571

>  <m>
=

>  <Value>
12000

>  <Unit>
nM

>  <Type>
IC50

>  <Ligand Efficiency>
0.21

>  <Binding Efficiency>
9.48

>  <Surface Efficiency>
7.26

>  <Assay Index>
262926

>  <Assay Category>


>  <Assay Organism>
SARS coronavirus

>  <Target ID>
20012

>  <Target Name>
SARS coronavirus 3C-like proteinase

>  <Target Organism>
SARS coronavirus

>  <Target Description>
Target is a single protein chain

>  <Sequence Accession>
P0C6U8

>  <Reference>
J. Med. Chem. 49 (12), 3485-3495 (2006)

>  <Pubmed ID>
16759091

>  <DOI>
10.1021/jm050852f

>  <InChI-Key>
NNVVKOVHRSDRSQ-UHFFFAOYSA-N

>  <Molecular Formula>
C22H19N4OClS4

>  <Monoisotopic Mass>
518.013018

>  <Druglikeness>
3.7138

$$$$
Compound 369
Actelion Java MolfileCreator 1.0

 28 31  0  0  0  0  0  0  0  0999 V2000
    0.0000   -0.0000   -0.0000 I   0  0  0  0  0  0  0  0  0  0  0  0
    1.2955   -0.7488   -0.0000 C   0  0  0  0  0  0  0  0  0  0  0  0
    2.5911    0.0119   -0.0000 C   0  0  0  0  0  0  0  0  0  0  0  0
    1.2837   -2.2464   -0.0000 C   0  0  0  0  0  0  0  0  0  0  0  0
    3.8866   -0.7369   -0.0000 C   0  0  0  0  0  0  0  0  0  0  0  0
    2.5792   -2.9952   -0.0000 C   0  0  0  0  0  0  0  0  0  0  0  0
    5.3129   -0.2496   -0.0000 C   0  0  0  0  0  0  0  0  0  0  0  0
    3.8748   -2.2345   -0.0000 C   0  0  0  0  0  0  0  0  0  0  0  0
    5.7527    1.1886   -0.0000 O   0  0  0  0  0  0  0  0  0  0  0  0
    6.1925   -1.4738   -0.0000 C   0  0  0  0  0  0  0  0  0  0  0  0
    5.3010   -2.6743   -0.0000 N   0  0  0  0  0  0  0  0  0  0  0  0
    7.6901   -1.4619   -0.0000 O   0  0  0  0  0  0  0  0  0  0  0  0
    5.7646   -4.1006   -0.0000 C   0  0  0  0  0  0  0  0  0  0  0  0
    7.2265   -4.4096   -0.0000 C   0  0  0  0  0  0  0  0  0  0  0  0
    8.3319   -3.3874   -0.0000 S   0  0  0  0  0  0  0  0  0  0  0  0
    7.8208   -5.7646   -0.0000 C   0  0  0  0  0  0  0  0  0  0  0  0
    9.6275   -4.1244   -0.0000 C   0  0  0  0  0  0  0  0  0  0  0  0
    9.3065   -5.5982   -0.0000 C   0  0  0  0  0  0  0  0  0  0  0  0
   10.9824   -3.4944   -0.0000 C   0  0  0  0  0  0  0  0  0  0  0  0
   11.1251   -1.9849   -0.0000 O   0  0  0  0  0  0  0  0  0  0  0  0
   12.1948   -4.3621   -0.0000 N   0  0  0  0  0  0  0  0  0  0  0  0
   13.5616   -3.7440   -0.0000 C   0  0  0  0  0  0  0  0  0  0  0  0
   13.6924   -2.2345   -0.0000 C   0  0  0  0  0  0  0  0  0  0  0  0
   14.7621   -4.6236   -0.0000 C   0  0  0  0  0  0  0  0  0  0  0  0
   15.0474   -1.6046   -0.0000 C   0  0  0  0  0  0  0  0  0  0  0  0
   16.1171   -3.9936   -0.0000 C   0  0  0  0  0  0  0  0  0  0  0  0
   16.2716   -2.4841   -0.0000 C   0  0  0  0  0  0  0  0  0  0  0  0
   17.6503   -1.8542   -0.0000 F   0  0  0  0  0  0  0  0  0  0  0  0
  1  2  1  0  0  0  0
  2  3  2  0  0  0  0
  2  4  1  0  0  0  0
  3  5  1  0  0  0  0
  4  6  2  0  0  0  0
  5  7  1  0  0  0  0
  5  8  2  0  0  0  0
  7  9  2  0  0  0  0
  7 10  1  0  0  0  0
  8 11  1  0  0  0  0
 10 12  2  0  0  0  0
 11 13  1  0  0  0  0
 13 14  1  0  0  0  0
 14 15  1  0  0  0  0
 14 16  2  0  0  0  0
 15 17  1  0  0  0  0
 16 18  1  0  0  0  0
 17 19  1  0  0  0  0
 19 20  2  0  0  0  0
 19 21  1  0  0  0  0
 21 22  1  0  0  0  0
 22 23  2  0  0  0  0
 22 24  1  0  0  0  0
 23 25  1  0  0  0  0
 24 26  2  0  0  0  0
 25 27  2  0  0  0  0
 27 28  1  0  0  0  0
  6  8  1  0  0  0  0
 10 11  1  0  0  0  0
 17 18  2  0  0  0  0
 26 27  1  0  0  0  0
M  END
>  <MolRegNo>
317443

>  <m>
=

>  <Value>
46

>  <Unit>
%

>  <Type>
Inhibition

>  <Ligand Efficiency>


>  <Binding Efficiency>


>  <Surface Efficiency>


>  <Assay Index>
240686

>  <Assay Category>


>  <Assay Organism>
SARS coronavirus

>  <Target ID>
20012

>  <Target Name>
SARS coronavirus 3C-like proteinase

>  <Target Organism>
SARS coronavirus

>  <Target Description>
Target is a single protein chain

>  <Sequence Accession>
P0C6U8

>  <Reference>
Bioorg. Med. Chem. Lett. 15 (12), 3058-3062 (2005)

>  <Pubmed ID>
15896959

>  <DOI>
10.1016/j.bmcl.2005.04.027

>  <InChI-Key>
NPBDCEQGAVYVAC-UHFFFAOYSA-N

>  <Molecular Formula>
C20H12N2O3FIS

>  <Monoisotopic Mass>
505.959739

>  <Druglikeness>
1.0213

$$$$
Compound 370
Actelion Java MolfileCreator 1.0

 46 49  0  0  0  0  0  0  0  0999 V2000
    0.0000   -0.0000   -0.0000 S   0  0  0  0  0  0  0  0  0  0  0  0
    0.2012    1.5028   -0.0000 C   0  0  0  0  0  0  0  0  0  0  0  0
   -1.4909   -0.2485   -0.0000 C   0  0  0  0  0  0  0  0  0  0  0  0
    1.5146    2.2127   -0.0000 C   0  0  0  0  0  0  0  0  0  0  0  0
   -1.1596    2.1772   -0.0000 C   0  0  0  0  0  0  0  0  0  0  0  0
   -2.2127    1.0886   -0.0000 C   0  0  0  0  0  0  0  0  0  0  0  0
    2.7689    1.4318   -0.0000 N   0  0  0  0  0  0  0  0  0  0  0  0
    1.5619    3.7273   -0.0000 C   0  0  0  0  0  0  0  0  0  0  0  0
    4.0823    2.1536   -0.0000 C   0  0  0  0  0  0  0  0  0  0  0  0
    2.7097   -0.0473   -0.0000 C   0  0  0  0  0  0  0  0  0  0  0  0
    2.8754    4.4373   -0.0000 C   0  0  0  0  0  0  0  0  0  0  0  0
    5.3484    1.3726   -0.0000 O   0  0  0  0  0  0  0  0  0  0  0  0
    4.1178    3.6563   -0.0000 C   0  0  0  0  0  0  0  0  0  0  0  0
    1.3726   -0.7455   -0.0000 O   0  0  0  0  0  0  0  0  0  0  0  0
    3.9758   -0.8283   -0.0000 C   0  0  0  0  0  0  0  0  0  0  0  0
    2.9227    5.9519   -0.0000 C   0  0  0  0  0  0  0  0  0  0  0  0
    5.4313    4.3781   -0.0000 C   0  0  0  0  0  0  0  0  0  0  0  0
    1.3016   -2.2364   -0.0000 C   0  0  0  0  0  0  0  0  0  0  0  0
    5.2893   -0.1183   -0.0000 O   0  0  0  0  0  0  0  0  0  0  0  0
    3.9048   -2.3192   -0.0000 C   0  0  0  0  0  0  0  0  0  0  0  0
    4.2361    6.6737   -0.0000 C   0  0  0  0  0  0  0  0  0  0  0  0
    1.6329    6.7565   -0.0000 C   0  0  0  0  0  0  0  0  0  0  0  0
    6.7447    5.0999   -0.0000 N   0  0  0  0  0  0  0  0  0  0  0  0
    2.5677   -3.0174   -0.0000 C   0  0  0  0  0  0  0  0  0  0  0  0
   -0.0355   -2.9345   -0.0000 C   0  0  0  0  0  0  0  0  0  0  0  0
    6.3305    0.9703   -0.0000 C   0  0  0  0  0  0  0  0  0  0  0  0
    5.1591   -3.1002   -0.0000 O   0  0  0  0  0  0  0  0  0  0  0  0
    4.2835    8.1883   -0.0000 C   0  0  0  0  0  0  0  0  0  0  0  0
    1.6803    8.2711   -0.0000 C   0  0  0  0  0  0  0  0  0  0  0  0
    2.4967   -4.5083   -0.0000 O   0  0  0  0  0  0  0  0  0  0  0  0
   -0.0947   -4.4136   -0.0000 O   0  0  0  0  0  0  0  0  0  0  0  0
    6.3069    2.4849   -0.0000 O   0  0  0  0  0  0  0  0  0  0  0  0
    7.7741    0.6035   -0.0000 C   0  0  0  0  0  0  0  0  0  0  0  0
    6.4725   -2.3902   -0.0000 C   0  0  0  0  0  0  0  0  0  0  0  0
    3.0055    8.9929   -0.0000 C   0  0  0  0  0  0  0  0  0  0  0  0
    3.7510   -5.2893   -0.0000 C   0  0  0  0  0  0  0  0  0  0  0  0
   -1.4318   -5.1118   -0.0000 C   0  0  0  0  0  0  0  0  0  0  0  0
    7.7268   -3.1712   -0.0000 O   0  0  0  0  0  0  0  0  0  0  0  0
    6.5199   -0.8756   -0.0000 C   0  0  0  0  0  0  0  0  0  0  0  0
    3.0410   10.4957   -0.0000 C   0  0  0  0  0  0  0  0  0  0  0  0
    3.6800   -6.7802   -0.0000 O   0  0  0  0  0  0  0  0  0  0  0  0
    5.0644   -4.5793   -0.0000 C   0  0  0  0  0  0  0  0  0  0  0  0
   -1.4909   -6.6027   -0.0000 O   0  0  0  0  0  0  0  0  0  0  0  0
   -2.7215   -4.3071   -0.0000 C   0  0  0  0  0  0  0  0  0  0  0  0
    4.3545   11.2175   -0.0000 C   0  0  0  0  0  0  0  0  0  0  0  0
    1.7631   11.3003   -0.0000 C   0  0  0  0  0  0  0  0  0  0  0  0
  1  2  1  0  0  0  0
  1  3  1  0  0  0  0
  2  4  1  0  0  0  0
  2  5  2  0  0  0  0
  3  6  2  0  0  0  0
  4  7  1  0  0  0  0
  4  8  2  0  0  0  0
  7  9  1  0  0  0  0
 10  7  1  6  0  0  0
  8 11  1  0  0  0  0
  9 12  2  0  0  0  0
  9 13  1  0  0  0  0
 10 14  1  0  0  0  0
 10 15  1  0  0  0  0
 11 16  1  0  0  0  0
 13 17  1  0  0  0  0
 14 18  1  0  0  0  0
 15 19  1  1  0  0  0
 15 20  1  0  0  0  0
 16 21  2  0  0  0  0
 16 22  1  0  0  0  0
 17 23  3  0  0  0  0
 18 24  1  0  0  0  0
 18 25  1  6  0  0  0
 19 26  1  0  0  0  0
 20 27  1  6  0  0  0
 21 28  1  0  0  0  0
 22 29  2  0  0  0  0
 24 30  1  1  0  0  0
 25 31  1  0  0  0  0
 26 32  2  0  0  0  0
 26 33  1  0  0  0  0
 27 34  1  0  0  0  0
 28 35  2  0  0  0  0
 30 36  1  0  0  0  0
 31 37  1  0  0  0  0
 34 38  2  0  0  0  0
 34 39  1  0  0  0  0
 35 40  1  0  0  0  0
 36 41  2  0  0  0  0
 36 42  1  0  0  0  0
 37 43  2  0  0  0  0
 37 44  1  0  0  0  0
 40 45  1  0  0  0  0
 40 46  1  0  0  0  0
  5  6  1  0  0  0  0
 11 13  2  0  0  0  0
 20 24  1  0  0  0  0
 29 35  1  0  0  0  0
M  END
>  <MolRegNo>
1619901

>  <m>
>

>  <Value>
1.0e5

>  <Unit>
nM

>  <Type>
EC50

>  <Ligand Efficiency>


>  <Binding Efficiency>


>  <Surface Efficiency>


>  <Assay Index>
825873

>  <Assay Category>


>  <Assay Organism>
SARS coronavirus

>  <Target ID>
100499

>  <Target Name>
SARS coronavirus

>  <Target Organism>
SARS coronavirus

>  <Target Description>
Target is a complete organism

>  <Sequence Accession>


>  <Reference>


>  <Pubmed ID>
24486419

>  <DOI>
10.1016/j.ejmech.2013.12.055

>  <InChI-Key>
NQRBPMMBKGALGC-MWPMHSNCSA-N

>  <Molecular Formula>
C33H34N2O10S

>  <Monoisotopic Mass>
650.193418

>  <Druglikeness>
0.94075

$$$$
Compound 371
Actelion Java MolfileCreator 1.0

 24 26  0  0  0  0  0  0  0  0999 V2000
    0.0000   -0.0000   -0.0000 S   0  0  0  0  0  0  0  0  0  0  0  0
    1.2034    0.8849   -0.0000 C   0  0  0  0  0  0  0  0  0  0  0  0
   -1.2270    0.8967   -0.0000 C   0  0  0  0  0  0  0  0  0  0  0  0
    2.6192    0.4365   -0.0000 C   0  0  0  0  0  0  0  0  0  0  0  0
    0.7315    2.3361   -0.0000 C   0  0  0  0  0  0  0  0  0  0  0  0
   -0.7787    2.3361   -0.0000 C   0  0  0  0  0  0  0  0  0  0  0  0
    3.8227    1.3332   -0.0000 N   0  0  0  0  0  0  0  0  0  0  0  0
    3.0794   -0.9793   -0.0000 C   0  0  0  0  0  0  0  0  0  0  0  0
    5.0261    0.4719   -0.0000 N   0  0  0  0  0  0  0  0  0  0  0  0
    3.8109    2.8434   -0.0000 C   0  0  0  0  0  0  0  0  0  0  0  0
    2.1827   -2.1827   -0.0000 C   0  0  0  0  0  0  0  0  0  0  0  0
    4.5542   -0.9675   -0.0000 C   0  0  0  0  0  0  0  0  0  0  0  0
    2.5838    3.7283   -0.0000 N   0  0  0  0  0  0  0  0  0  0  0  0
    5.0143    3.7283   -0.0000 C   0  0  0  0  0  0  0  0  0  0  0  0
    1.2978   -3.3861   -0.0000 N   0  0  0  0  0  0  0  0  0  0  0  0
    5.4273   -2.1709   -0.0000 S   0  0  0  0  0  0  0  0  0  0  0  0
    3.0322    5.1677   -0.0000 N   0  0  0  0  0  0  0  0  0  0  0  0
    1.1444    3.2682   -0.0000 C   0  0  0  0  0  0  0  0  0  0  0  0
    6.4419    3.2800   -0.0000 N   0  0  0  0  0  0  0  0  0  0  0  0
    4.5306    5.1677   -0.0000 C   0  0  0  0  0  0  0  0  0  0  0  0
    4.8019   -3.5277   -0.0000 C   0  0  0  0  0  0  0  0  0  0  0  0
    7.5392    4.2946   -0.0000 O   0  0  0  0  0  0  0  0  0  0  0  0
    6.7369    1.8288   -0.0000 O   0  0  0  0  0  0  0  0  0  0  0  0
    5.3919    6.3947   -0.0000 C   0  0  0  0  0  0  0  0  0  0  0  0
  1  2  1  0  0  0  0
  1  3  1  0  0  0  0
  2  4  1  0  0  0  0
  2  5  2  0  0  0  0
  3  6  2  0  0  0  0
  4  7  1  0  0  0  0
  4  8  2  0  0  0  0
  7  9  1  0  0  0  0
  7 10  1  0  0  0  0
  8 11  1  0  0  0  0
  8 12  1  0  0  0  0
 10 13  1  0  0  0  0
 10 14  2  0  0  0  0
 11 15  3  0  0  0  0
 12 16  1  0  0  0  0
 13 17  1  0  0  0  0
 13 18  1  0  0  0  0
 14 19  1  0  0  0  0
 14 20  1  0  0  0  0
 16 21  1  0  0  0  0
 19 22  2  0  0  0  0
 19 23  1  0  0  0  0
 20 24  1  0  0  0  0
  5  6  1  0  0  0  0
  9 12  2  0  0  0  0
 17 20  2  0  0  0  0
M  CHG  2  19   1  23  -1
M  END
>  <MolRegNo>
356339

>  <m>
=

>  <Value>
18000

>  <Unit>
nM

>  <Type>
IC50

>  <Ligand Efficiency>
0.27

>  <Binding Efficiency>
13.16

>  <Surface Efficiency>
4.63

>  <Assay Index>
266027

>  <Assay Category>


>  <Assay Organism>
SARS coronavirus

>  <Target ID>
20012

>  <Target Name>
SARS coronavirus 3C-like proteinase

>  <Target Organism>
SARS coronavirus

>  <Target Description>
Target is a single protein chain

>  <Sequence Accession>
P0C6U8

>  <Reference>
J. Med. Chem. 49 (17), 5154-5161 (2006)

>  <Pubmed ID>
16913704

>  <DOI>
10.1021/jm060207o

>  <InChI-Key>
NTMNWUJSOXLLCJ-UHFFFAOYSA-N

>  <Molecular Formula>
C14H12N6O2S2

>  <Monoisotopic Mass>
360.046314

>  <Druglikeness>
-4.0816

$$$$
Compound 372
Actelion Java MolfileCreator 1.0

 22 24  0  0  0  0  0  0  0  0999 V2000
    0.0000   -0.0000   -0.0000 Cl  0  0  0  0  0  0  0  0  0  0  0  0
   -1.3062    0.7531   -0.0000 C   0  0  0  0  0  0  0  0  0  0  0  0
   -1.3179    2.2593   -0.0000 C   0  0  0  0  0  0  0  0  0  0  0  0
   -2.6123    0.0235   -0.0000 C   0  0  0  0  0  0  0  0  0  0  0  0
   -2.6241    3.0124   -0.0000 C   0  0  0  0  0  0  0  0  0  0  0  0
   -3.9185    0.7766   -0.0000 C   0  0  0  0  0  0  0  0  0  0  0  0
   -3.9303    2.2828   -0.0000 C   0  0  0  0  0  0  0  0  0  0  0  0
   -5.2364    3.0359   -0.0000 C   0  0  0  0  0  0  0  0  0  0  0  0
   -5.2482    4.5422   -0.0000 C   0  0  0  0  0  0  0  0  0  0  0  0
   -6.5426    2.3064   -0.0000 C   0  0  0  0  0  0  0  0  0  0  0  0
   -3.9656    5.2953   -0.0000 C   0  0  0  0  0  0  0  0  0  0  0  0
   -6.5544    5.2953   -0.0000 C   0  0  0  0  0  0  0  0  0  0  0  0
   -7.8487    3.0595   -0.0000 C   0  0  0  0  0  0  0  0  0  0  0  0
   -2.6829    6.0484   -0.0000 N   0  0  0  0  0  0  0  0  0  0  0  0
   -6.5661    6.8015   -0.0000 O   0  0  0  0  0  0  0  0  0  0  0  0
   -7.8605    4.5539   -0.0000 N   0  0  0  0  0  0  0  0  0  0  0  0
   -9.1549    2.3299   -0.0000 C   0  0  0  0  0  0  0  0  0  0  0  0
  -10.4611    3.0830   -0.0000 N   0  0  0  0  0  0  0  0  0  0  0  0
   -9.1667    0.8472   -0.0000 C   0  0  0  0  0  0  0  0  0  0  0  0
  -11.7672    2.3534   -0.0000 C   0  0  0  0  0  0  0  0  0  0  0  0
  -10.4728    0.1177   -0.0000 C   0  0  0  0  0  0  0  0  0  0  0  0
  -11.7790    0.8708   -0.0000 C   0  0  0  0  0  0  0  0  0  0  0  0
  1  2  1  0  0  0  0
  2  3  2  0  0  0  0
  2  4  1  0  0  0  0
  3  5  1  0  0  0  0
  4  6  2  0  0  0  0
  5  7  2  0  0  0  0
  7  8  1  0  0  0  0
  8  9  2  0  0  0  0
  8 10  1  0  0  0  0
  9 11  1  0  0  0  0
  9 12  1  0  0  0  0
 10 13  2  0  0  0  0
 11 14  3  0  0  0  0
 12 15  2  0  0  0  0
 12 16  1  0  0  0  0
 13 17  1  0  0  0  0
 17 18  2  0  0  0  0
 17 19  1  0  0  0  0
 18 20  1  0  0  0  0
 19 21  2  0  0  0  0
 20 22  2  0  0  0  0
  6  7  1  0  0  0  0
 13 16  1  0  0  0  0
 21 22  1  0  0  0  0
M  END
>  <MolRegNo>
1619987

>  <m>
>

>  <Value>
320

>  <Unit>
nM

>  <Type>
EC50

>  <Ligand Efficiency>


>  <Binding Efficiency>


>  <Surface Efficiency>


>  <Assay Index>
825873

>  <Assay Category>


>  <Assay Organism>
SARS coronavirus

>  <Target ID>
100499

>  <Target Name>
SARS coronavirus

>  <Target Organism>
SARS coronavirus

>  <Target Description>
Target is a complete organism

>  <Sequence Accession>


>  <Reference>


>  <Pubmed ID>
24486419

>  <DOI>
10.1016/j.ejmech.2013.12.055

>  <InChI-Key>
NTMOJASHOMIATH-UHFFFAOYSA-N

>  <Molecular Formula>
C17H10N3OCl

>  <Monoisotopic Mass>
307.051239

>  <Druglikeness>
-1.0009

$$$$
Compound 373
Actelion Java MolfileCreator 1.0

 30 33  0  0  0  0  0  0  0  0999 V2000
    0.0000   -0.0000   -0.0000 O   0  0  0  0  0  0  0  0  0  0  0  0
   -1.0683   -0.6002   -0.0000 C   0  0  0  0  0  0  0  0  0  0  0  0
   -1.0803   -2.1126   -0.0000 N   0  0  0  0  0  0  0  0  0  0  0  0
   -2.4006    0.1680   -0.0000 C   0  0  0  0  0  0  0  0  0  0  0  0
    0.2281   -2.8568   -0.0000 C   0  0  0  0  0  0  0  0  0  0  0  0
   -2.4126    1.7045   -0.0000 C   0  0  0  0  0  0  0  0  0  0  0  0
   -3.7330   -0.5882   -0.0000 C   0  0  0  0  0  0  0  0  0  0  0  0
    0.2161   -4.3692   -0.0000 C   0  0  0  0  0  0  0  0  0  0  0  0
   -3.7450    2.4727   -0.0000 C   0  0  0  0  0  0  0  0  0  0  0  0
   -5.0654    0.1800   -0.0000 C   0  0  0  0  0  0  0  0  0  0  0  0
    1.5244   -5.1134   -0.0000 C   0  0  0  0  0  0  0  0  0  0  0  0
   -1.1163   -5.1134   -0.0000 C   0  0  0  0  0  0  0  0  0  0  0  0
   -5.0774    1.7165   -0.0000 N   0  0  0  0  0  0  0  0  0  0  0  0
    1.5124   -6.6258   -0.0000 C   0  0  0  0  0  0  0  0  0  0  0  0
   -1.1283   -6.6258   -0.0000 C   0  0  0  0  0  0  0  0  0  0  0  0
   -6.4097    2.4847   -0.0000 C   0  0  0  0  0  0  0  0  0  0  0  0
    0.1800   -7.3700   -0.0000 C   0  0  0  0  0  0  0  0  0  0  0  0
   -6.4217    4.0211   -0.0000 C   0  0  0  0  0  0  0  0  0  0  0  0
   -7.4780    1.8845   -0.0000 C   0  0  0  0  0  0  0  0  0  0  0  0
    0.1680   -8.8824   -0.0000 O   0  0  0  0  0  0  0  0  0  0  0  0
   -7.7541    4.7893   -0.0000 C   0  0  0  0  0  0  0  0  0  0  0  0
   -5.1134    4.7893   -0.0000 C   0  0  0  0  0  0  0  0  0  0  0  0
   -0.9002   -9.4825   -0.0000 C   0  0  0  0  0  0  0  0  0  0  0  0
   -7.7661    6.3257   -0.0000 C   0  0  0  0  0  0  0  0  0  0  0  0
   -9.0864    4.0451   -0.0000 C   0  0  0  0  0  0  0  0  0  0  0  0
   -5.1254    6.3257   -0.0000 C   0  0  0  0  0  0  0  0  0  0  0  0
   -6.4577    7.0939   -0.0000 C   0  0  0  0  0  0  0  0  0  0  0  0
   -9.0984    7.0939   -0.0000 C   0  0  0  0  0  0  0  0  0  0  0  0
  -10.4308    4.8133   -0.0000 C   0  0  0  0  0  0  0  0  0  0  0  0
  -10.4428    6.3497   -0.0000 C   0  0  0  0  0  0  0  0  0  0  0  0
  1  2  2  0  0  0  0
  2  3  1  0  0  0  0
  2  4  1  0  0  0  0
  3  5  1  0  0  0  0
  4  6  1  0  0  0  0
  4  7  1  0  0  0  0
  5  8  1  0  0  0  0
  6  9  1  0  0  0  0
  7 10  1  0  0  0  0
  8 11  2  0  0  0  0
  8 12  1  0  0  0  0
  9 13  1  0  0  0  0
 11 14  1  0  0  0  0
 12 15  2  0  0  0  0
 16 13  1  1  0  0  0
 14 17  2  0  0  0  0
 16 18  1  0  0  0  0
 16 19  1  0  0  0  0
 17 20  1  0  0  0  0
 18 21  1  0  0  0  0
 18 22  2  0  0  0  0
 20 23  1  0  0  0  0
 21 24  1  0  0  0  0
 21 25  2  0  0  0  0
 22 26  1  0  0  0  0
 24 27  1  0  0  0  0
 24 28  2  0  0  0  0
 25 29  1  0  0  0  0
 28 30  1  0  0  0  0
 10 13  1  0  0  0  0
 15 17  1  0  0  0  0
 26 27  2  0  0  0  0
 29 30  2  0  0  0  0
M  END
>  <MolRegNo>
650343

>  <m>
=

>  <Value>
10200

>  <Unit>
nM

>  <Type>
EC50

>  <Ligand Efficiency>


>  <Binding Efficiency>


>  <Surface Efficiency>


>  <Assay Index>
486973

>  <Assay Category>


>  <Assay Organism>
SARS coronavirus

>  <Target ID>
100499

>  <Target Name>
SARS coronavirus

>  <Target Organism>
SARS coronavirus

>  <Target Description>
Target is a complete organism

>  <Sequence Accession>


>  <Reference>
J. Med. Chem. 53 (13), 4968-4979 (2010)

>  <Pubmed ID>
20527968

>  <DOI>
10.1021/jm1004489

>  <InChI-Key>
NTMTVRCCLOAJST-IBGZPJMESA-N

>  <Molecular Formula>
C26H30N2O2

>  <Monoisotopic Mass>
402.230728

>  <Druglikeness>
6.7431

$$$$
Compound 374
Actelion Java MolfileCreator 1.0

 25 28  0  0  0  0  0  0  0  0999 V2000
    0.0000   -0.0000   -0.0000 O   0  0  0  0  0  0  0  0  0  0  0  0
    1.4908    0.0592   -0.0000 C   0  0  0  0  0  0  0  0  0  0  0  0
    2.3900   -1.1122   -0.0000 N   0  0  0  0  0  0  0  0  0  0  0  0
    2.3190    1.3252   -0.0000 C   0  0  0  0  0  0  0  0  0  0  0  0
    3.7861   -0.5798   -0.0000 C   0  0  0  0  0  0  0  0  0  0  0  0
    2.3782   -2.6030   -0.0000 C   0  0  0  0  0  0  0  0  0  0  0  0
    1.7866    2.7450   -0.0000 O   0  0  0  0  0  0  0  0  0  0  0  0
    3.7388    0.9229   -0.0000 C   0  0  0  0  0  0  0  0  0  0  0  0
    5.0995   -1.2897   -0.0000 C   0  0  0  0  0  0  0  0  0  0  0  0
    1.3015   -3.6560   -0.0000 C   0  0  0  0  0  0  0  0  0  0  0  0
    5.0048    1.7274   -0.0000 C   0  0  0  0  0  0  0  0  0  0  0  0
    6.3891   -0.4851   -0.0000 C   0  0  0  0  0  0  0  0  0  0  0  0
    0.0118   -2.8869   -0.0000 C   0  0  0  0  0  0  0  0  0  0  0  0
    1.2778   -5.1350   -0.0000 C   0  0  0  0  0  0  0  0  0  0  0  0
    6.3181    1.0294   -0.0000 C   0  0  0  0  0  0  0  0  0  0  0  0
   -1.3133   -3.6087   -0.0000 C   0  0  0  0  0  0  0  0  0  0  0  0
   -0.0473   -5.8804   -0.0000 C   0  0  0  0  0  0  0  0  0  0  0  0
    7.5841    1.8457   -0.0000 C   0  0  0  0  0  0  0  0  0  0  0  0
   -1.3488   -5.0876   -0.0000 C   0  0  0  0  0  0  0  0  0  0  0  0
   -2.6266   -2.8278   -0.0000 C   0  0  0  0  0  0  0  0  0  0  0  0
    7.5250    3.3602   -0.0000 O   0  0  0  0  0  0  0  0  0  0  0  0
    8.8974    1.1713   -0.0000 N   0  0  0  0  0  0  0  0  0  0  0  0
   -2.6385   -5.8212   -0.0000 C   0  0  0  0  0  0  0  0  0  0  0  0
   -3.9163   -3.5613   -0.0000 C   0  0  0  0  0  0  0  0  0  0  0  0
   -3.9400   -5.0640   -0.0000 C   0  0  0  0  0  0  0  0  0  0  0  0
  1  2  2  0  0  0  0
  2  3  1  0  0  0  0
  2  4  1  0  0  0  0
  3  5  1  0  0  0  0
  3  6  1  0  0  0  0
  4  7  2  0  0  0  0
  4  8  1  0  0  0  0
  5  9  1  0  0  0  0
  6 10  1  0  0  0  0
  8 11  1  0  0  0  0
  9 12  2  0  0  0  0
 10 13  2  0  0  0  0
 10 14  1  0  0  0  0
 11 15  2  0  0  0  0
 13 16  1  0  0  0  0
 14 17  2  0  0  0  0
 15 18  1  0  0  0  0
 16 19  1  0  0  0  0
 16 20  2  0  0  0  0
 18 21  2  0  0  0  0
 18 22  1  0  0  0  0
 19 23  2  0  0  0  0
 20 24  1  0  0  0  0
 23 25  1  0  0  0  0
  5  8  2  0  0  0  0
 12 15  1  0  0  0  0
 17 19  1  0  0  0  0
 24 25  2  0  0  0  0
M  END
>  <MolRegNo>
246269

>  <m>
=

>  <Value>
370

>  <Unit>
nM

>  <Type>
IC50

>  <Ligand Efficiency>
0.35

>  <Binding Efficiency>
19.47

>  <Surface Efficiency>
7.99

>  <Assay Index>
262886

>  <Assay Category>


>  <Assay Organism>
SARS coronavirus

>  <Target ID>
20012

>  <Target Name>
SARS coronavirus 3C-like proteinase

>  <Target Organism>
SARS coronavirus

>  <Target Description>
Target is a single protein chain

>  <Sequence Accession>
P0C6U8

>  <Reference>
J. Med. Chem. 49 (12), 3440-3443 (2006)

>  <Pubmed ID>
16759084

>  <DOI>
10.1021/jm0602357

>  <InChI-Key>
NTNYHMJYSGPGCQ-UHFFFAOYSA-N

>  <Molecular Formula>
C20H14N2O3

>  <Monoisotopic Mass>
330.100443

>  <Druglikeness>
0.42426

$$$$
Compound 375
Actelion Java MolfileCreator 1.0

 25 28  0  0  0  0  0  0  0  0999 V2000
    0.0000   -0.0000   -0.0000 O   0  0  0  0  0  0  0  0  0  0  0  0
    1.4908    0.0592   -0.0000 C   0  0  0  0  0  0  0  0  0  0  0  0
    2.3900   -1.1122   -0.0000 N   0  0  0  0  0  0  0  0  0  0  0  0
    2.3190    1.3252   -0.0000 C   0  0  0  0  0  0  0  0  0  0  0  0
    3.7861   -0.5798   -0.0000 C   0  0  0  0  0  0  0  0  0  0  0  0
    2.3782   -2.6030   -0.0000 C   0  0  0  0  0  0  0  0  0  0  0  0
    1.7866    2.7450   -0.0000 O   0  0  0  0  0  0  0  0  0  0  0  0
    3.7388    0.9229   -0.0000 C   0  0  0  0  0  0  0  0  0  0  0  0
    5.0995   -1.2897   -0.0000 C   0  0  0  0  0  0  0  0  0  0  0  0
    1.3015   -3.6560   -0.0000 C   0  0  0  0  0  0  0  0  0  0  0  0
    5.0048    1.7274   -0.0000 C   0  0  0  0  0  0  0  0  0  0  0  0
    6.3891   -0.4851   -0.0000 C   0  0  0  0  0  0  0  0  0  0  0  0
    0.0118   -2.8869   -0.0000 C   0  0  0  0  0  0  0  0  0  0  0  0
    1.2778   -5.1350   -0.0000 C   0  0  0  0  0  0  0  0  0  0  0  0
    6.3181    1.0294   -0.0000 C   0  0  0  0  0  0  0  0  0  0  0  0
   -1.3133   -3.6087   -0.0000 C   0  0  0  0  0  0  0  0  0  0  0  0
   -0.0473   -5.8804   -0.0000 C   0  0  0  0  0  0  0  0  0  0  0  0
    7.5841    1.8457   -0.0000 C   0  0  0  0  0  0  0  0  0  0  0  0
   -1.3488   -5.0876   -0.0000 C   0  0  0  0  0  0  0  0  0  0  0  0
   -2.6266   -2.8278   -0.0000 C   0  0  0  0  0  0  0  0  0  0  0  0
    7.5250    3.3602   -0.0000 O   0  0  0  0  0  0  0  0  0  0  0  0
    8.8974    1.1713   -0.0000 N   0  0  0  0  0  0  0  0  0  0  0  0
   -2.6385   -5.8212   -0.0000 C   0  0  0  0  0  0  0  0  0  0  0  0
   -3.9163   -3.5613   -0.0000 C   0  0  0  0  0  0  0  0  0  0  0  0
   -3.9400   -5.0640   -0.0000 C   0  0  0  0  0  0  0  0  0  0  0  0
  1  2  2  0  0  0  0
  2  3  1  0  0  0  0
  2  4  1  0  0  0  0
  3  5  1  0  0  0  0
  3  6  1  0  0  0  0
  4  7  2  0  0  0  0
  4  8  1  0  0  0  0
  5  9  1  0  0  0  0
  6 10  1  0  0  0  0
  8 11  1  0  0  0  0
  9 12  2  0  0  0  0
 10 13  2  0  0  0  0
 10 14  1  0  0  0  0
 11 15  2  0  0  0  0
 13 16  1  0  0  0  0
 14 17  2  0  0  0  0
 15 18  1  0  0  0  0
 16 19  1  0  0  0  0
 16 20  2  0  0  0  0
 18 21  2  0  0  0  0
 18 22  1  0  0  0  0
 19 23  2  0  0  0  0
 20 24  1  0  0  0  0
 23 25  1  0  0  0  0
  5  8  2  0  0  0  0
 12 15  1  0  0  0  0
 17 19  1  0  0  0  0
 24 25  2  0  0  0  0
M  END
>  <MolRegNo>
246269

>  <m>
=

>  <Value>
120.23

>  <Unit>
nM

>  <Type>
Ki

>  <Ligand Efficiency>


>  <Binding Efficiency>


>  <Surface Efficiency>


>  <Assay Index>
262886

>  <Assay Category>


>  <Assay Organism>
SARS coronavirus

>  <Target ID>
20012

>  <Target Name>
SARS coronavirus 3C-like proteinase

>  <Target Organism>
SARS coronavirus

>  <Target Description>
Target is a single protein chain

>  <Sequence Accession>
P0C6U8

>  <Reference>
J. Med. Chem. 49 (12), 3440-3443 (2006)

>  <Pubmed ID>
16759084

>  <DOI>
10.1021/jm0602357

>  <InChI-Key>
NTNYHMJYSGPGCQ-UHFFFAOYSA-N

>  <Molecular Formula>
C20H14N2O3

>  <Monoisotopic Mass>
330.100443

>  <Druglikeness>
0.42426

$$$$
Compound 376
Actelion Java MolfileCreator 1.0

 25 28  0  0  0  0  0  0  0  0999 V2000
    0.0000   -0.0000   -0.0000 O   0  0  0  0  0  0  0  0  0  0  0  0
    1.4908    0.0592   -0.0000 C   0  0  0  0  0  0  0  0  0  0  0  0
    2.3900   -1.1122   -0.0000 N   0  0  0  0  0  0  0  0  0  0  0  0
    2.3190    1.3252   -0.0000 C   0  0  0  0  0  0  0  0  0  0  0  0
    3.7861   -0.5798   -0.0000 C   0  0  0  0  0  0  0  0  0  0  0  0
    2.3782   -2.6030   -0.0000 C   0  0  0  0  0  0  0  0  0  0  0  0
    1.7866    2.7450   -0.0000 O   0  0  0  0  0  0  0  0  0  0  0  0
    3.7388    0.9229   -0.0000 C   0  0  0  0  0  0  0  0  0  0  0  0
    5.0995   -1.2897   -0.0000 C   0  0  0  0  0  0  0  0  0  0  0  0
    1.3015   -3.6560   -0.0000 C   0  0  0  0  0  0  0  0  0  0  0  0
    5.0048    1.7274   -0.0000 C   0  0  0  0  0  0  0  0  0  0  0  0
    6.3891   -0.4851   -0.0000 C   0  0  0  0  0  0  0  0  0  0  0  0
    0.0118   -2.8869   -0.0000 C   0  0  0  0  0  0  0  0  0  0  0  0
    1.2778   -5.1350   -0.0000 C   0  0  0  0  0  0  0  0  0  0  0  0
    6.3181    1.0294   -0.0000 C   0  0  0  0  0  0  0  0  0  0  0  0
   -1.3133   -3.6087   -0.0000 C   0  0  0  0  0  0  0  0  0  0  0  0
   -0.0473   -5.8804   -0.0000 C   0  0  0  0  0  0  0  0  0  0  0  0
    7.5841    1.8457   -0.0000 C   0  0  0  0  0  0  0  0  0  0  0  0
   -1.3488   -5.0876   -0.0000 C   0  0  0  0  0  0  0  0  0  0  0  0
   -2.6266   -2.8278   -0.0000 C   0  0  0  0  0  0  0  0  0  0  0  0
    7.5250    3.3602   -0.0000 O   0  0  0  0  0  0  0  0  0  0  0  0
    8.8974    1.1713   -0.0000 N   0  0  0  0  0  0  0  0  0  0  0  0
   -2.6385   -5.8212   -0.0000 C   0  0  0  0  0  0  0  0  0  0  0  0
   -3.9163   -3.5613   -0.0000 C   0  0  0  0  0  0  0  0  0  0  0  0
   -3.9400   -5.0640   -0.0000 C   0  0  0  0  0  0  0  0  0  0  0  0
  1  2  2  0  0  0  0
  2  3  1  0  0  0  0
  2  4  1  0  0  0  0
  3  5  1  0  0  0  0
  3  6  1  0  0  0  0
  4  7  2  0  0  0  0
  4  8  1  0  0  0  0
  5  9  1  0  0  0  0
  6 10  1  0  0  0  0
  8 11  1  0  0  0  0
  9 12  2  0  0  0  0
 10 13  2  0  0  0  0
 10 14  1  0  0  0  0
 11 15  2  0  0  0  0
 13 16  1  0  0  0  0
 14 17  2  0  0  0  0
 15 18  1  0  0  0  0
 16 19  1  0  0  0  0
 16 20  2  0  0  0  0
 18 21  2  0  0  0  0
 18 22  1  0  0  0  0
 19 23  2  0  0  0  0
 20 24  1  0  0  0  0
 23 25  1  0  0  0  0
  5  8  2  0  0  0  0
 12 15  1  0  0  0  0
 17 19  1  0  0  0  0
 24 25  2  0  0  0  0
M  END
>  <MolRegNo>
246269

>  <m>
=

>  <Value>
120

>  <Unit>
nM

>  <Type>
Ki

>  <Ligand Efficiency>
0.38

>  <Binding Efficiency>
20.95

>  <Surface Efficiency>
8.60

>  <Assay Index>
262886

>  <Assay Category>


>  <Assay Organism>
SARS coronavirus

>  <Target ID>
20012

>  <Target Name>
SARS coronavirus 3C-like proteinase

>  <Target Organism>
SARS coronavirus

>  <Target Description>
Target is a single protein chain

>  <Sequence Accession>
P0C6U8

>  <Reference>
J. Med. Chem. 49 (12), 3440-3443 (2006)

>  <Pubmed ID>
16759084

>  <DOI>
10.1021/jm0602357

>  <InChI-Key>
NTNYHMJYSGPGCQ-UHFFFAOYSA-N

>  <Molecular Formula>
C20H14N2O3

>  <Monoisotopic Mass>
330.100443

>  <Druglikeness>
0.42426

$$$$
Compound 377
Actelion Java MolfileCreator 1.0

 22 24  0  0  0  0  0  0  0  0999 V2000
    0.0000   -0.0000   -0.0000 Cl  0  0  0  0  0  0  0  0  0  0  0  0
   -1.3006    0.7686   -0.0000 C   0  0  0  0  0  0  0  0  0  0  0  0
   -1.3125    2.2702   -0.0000 C   0  0  0  0  0  0  0  0  0  0  0  0
   -2.6013    0.0355   -0.0000 C   0  0  0  0  0  0  0  0  0  0  0  0
   -2.6249    3.0269   -0.0000 N   0  0  0  0  0  0  0  0  0  0  0  0
   -3.9019    0.8040   -0.0000 C   0  0  0  0  0  0  0  0  0  0  0  0
   -3.9255    2.2938   -0.0000 C   0  0  0  0  0  0  0  0  0  0  0  0
   -5.2144    0.0709   -0.0000 O   0  0  0  0  0  0  0  0  0  0  0  0
   -6.5150    0.8277   -0.0000 C   0  0  0  0  0  0  0  0  0  0  0  0
   -6.5268    2.3293   -0.0000 O   0  0  0  0  0  0  0  0  0  0  0  0
   -7.8274    0.0946   -0.0000 C   0  0  0  0  0  0  0  0  0  0  0  0
   -9.1281    0.8631   -0.0000 C   0  0  0  0  0  0  0  0  0  0  0  0
   -7.8393   -1.3834   -0.0000 C   0  0  0  0  0  0  0  0  0  0  0  0
  -10.4287    0.1301   -0.0000 C   0  0  0  0  0  0  0  0  0  0  0  0
   -9.1399   -2.1165   -0.0000 C   0  0  0  0  0  0  0  0  0  0  0  0
  -10.4405   -1.3598   -0.0000 C   0  0  0  0  0  0  0  0  0  0  0  0
  -11.8712    0.6030   -0.0000 C   0  0  0  0  0  0  0  0  0  0  0  0
  -11.8831   -1.8091   -0.0000 N   0  0  0  0  0  0  0  0  0  0  0  0
  -12.7698   -0.6030   -0.0000 C   0  0  0  0  0  0  0  0  0  0  0  0
  -12.3560   -3.2161   -0.0000 C   0  0  0  0  0  0  0  0  0  0  0  0
  -13.8340   -3.5117   -0.0000 O   0  0  0  0  0  0  0  0  0  0  0  0
  -11.3628   -4.3157   -0.0000 C   0  0  0  0  0  0  0  0  0  0  0  0
  1  2  1  0  0  0  0
  2  3  2  0  0  0  0
  2  4  1  0  0  0  0
  3  5  1  0  0  0  0
  4  6  2  0  0  0  0
  5  7  2  0  0  0  0
  6  8  1  0  0  0  0
  8  9  1  0  0  0  0
  9 10  2  0  0  0  0
  9 11  1  0  0  0  0
 11 12  2  0  0  0  0
 11 13  1  0  0  0  0
 12 14  1  0  0  0  0
 13 15  2  0  0  0  0
 14 16  2  0  0  0  0
 14 17  1  0  0  0  0
 16 18  1  0  0  0  0
 17 19  2  0  0  0  0
 18 20  1  0  0  0  0
 20 21  2  0  0  0  0
 20 22  1  0  0  0  0
  6  7  1  0  0  0  0
 15 16  1  0  0  0  0
 18 19  1  0  0  0  0
M  END
>  <MolRegNo>
493964

>  <m>
=

>  <Value>
400

>  <Unit>
nM

>  <Type>
IC50

>  <Ligand Efficiency>


>  <Binding Efficiency>


>  <Surface Efficiency>


>  <Assay Index>
341535

>  <Assay Category>


>  <Assay Organism>
SARS coronavirus

>  <Target ID>
100499

>  <Target Name>
SARS coronavirus

>  <Target Organism>
SARS coronavirus

>  <Target Description>
Target is a complete organism

>  <Sequence Accession>


>  <Reference>
Bioorg. Med. Chem. Lett. 18 (20), 5684-5688 (2008)

>  <Pubmed ID>
18796354

>  <DOI>
10.1016/j.bmcl.2008.08.082

>  <InChI-Key>
OCDAGQUKTMTFLK-UHFFFAOYSA-N

>  <Molecular Formula>
C16H11N2O3Cl

>  <Monoisotopic Mass>
314.045820

>  <Druglikeness>
1.3949

$$$$
Compound 378
Actelion Java MolfileCreator 1.0

 23 25  0  0  0  0  0  0  0  0999 V2000
    0.0000   -0.0000   -0.0000 Cl  0  0  0  0  0  0  0  0  0  0  0  0
   -0.0119    1.5191   -0.0000 C   0  0  0  0  0  0  0  0  0  0  0  0
    1.2817    2.2786   -0.0000 C   0  0  0  0  0  0  0  0  0  0  0  0
   -1.3292    2.2786   -0.0000 C   0  0  0  0  0  0  0  0  0  0  0  0
    1.2699    3.7977   -0.0000 C   0  0  0  0  0  0  0  0  0  0  0  0
   -1.3411    3.7977   -0.0000 C   0  0  0  0  0  0  0  0  0  0  0  0
   -0.0475    4.5573   -0.0000 C   0  0  0  0  0  0  0  0  0  0  0  0
    2.5635    4.5573   -0.0000 C   0  0  0  0  0  0  0  0  0  0  0  0
    3.8571    3.8096   -0.0000 N   0  0  0  0  0  0  0  0  0  0  0  0
    5.1507    4.5692   -0.0000 C   0  0  0  0  0  0  0  0  0  0  0  0
    6.4443    3.8215   -0.0000 C   0  0  0  0  0  0  0  0  0  0  0  0
    7.7379    4.5810   -0.0000 O   0  0  0  0  0  0  0  0  0  0  0  0
    6.4324    2.3261   -0.0000 C   0  0  0  0  0  0  0  0  0  0  0  0
    9.0315    3.8333   -0.0000 C   0  0  0  0  0  0  0  0  0  0  0  0
    7.7260    1.5903   -0.0000 C   0  0  0  0  0  0  0  0  0  0  0  0
    9.0196    2.3380   -0.0000 C   0  0  0  0  0  0  0  0  0  0  0  0
   10.3251    4.5929   -0.0000 C   0  0  0  0  0  0  0  0  0  0  0  0
    7.7142    0.0949   -0.0000 O   0  0  0  0  0  0  0  0  0  0  0  0
   10.3132    1.6022   -0.0000 C   0  0  0  0  0  0  0  0  0  0  0  0
   11.6187    3.8452   -0.0000 C   0  0  0  0  0  0  0  0  0  0  0  0
   10.3014    0.1068   -0.0000 O   0  0  0  0  0  0  0  0  0  0  0  0
   11.6068    2.3617   -0.0000 C   0  0  0  0  0  0  0  0  0  0  0  0
   12.9005    1.6259   -0.0000 O   0  0  0  0  0  0  0  0  0  0  0  0
  1  2  1  0  0  0  0
  2  3  2  0  0  0  0
  2  4  1  0  0  0  0
  3  5  1  0  0  0  0
  4  6  2  0  0  0  0
  5  7  2  0  0  0  0
  5  8  1  0  0  0  0
  8  9  1  0  0  0  0
  9 10  1  0  0  0  0
 10 11  1  0  0  0  0
 11 12  1  0  0  0  0
 11 13  2  0  0  0  0
 12 14  1  0  0  0  0
 13 15  1  0  0  0  0
 14 16  2  0  0  0  0
 14 17  1  0  0  0  0
 15 18  2  0  0  0  0
 16 19  1  0  0  0  0
 17 20  2  0  0  0  0
 19 21  1  0  0  0  0
 19 22  2  0  0  0  0
 22 23  1  0  0  0  0
  6  7  1  0  0  0  0
 15 16  1  0  0  0  0
 20 22  1  0  0  0  0
M  END
>  <MolRegNo>
557228

>  <m>
>

>  <Value>
50000

>  <Unit>
nM

>  <Type>
IC50

>  <Ligand Efficiency>


>  <Binding Efficiency>


>  <Surface Efficiency>


>  <Assay Index>
426933

>  <Assay Category>


>  <Assay Organism>
SARS coronavirus

>  <Target ID>
101075

>  <Target Name>
Replicase polyprotein 1ab

>  <Target Organism>
SARS coronavirus

>  <Target Description>
Target is a single protein chain

>  <Sequence Accession>
P0C6X7

>  <Reference>
Bioorg. Med. Chem. Lett. 19 (16), 4538-4541 (2009)

>  <Pubmed ID>
19625187

>  <DOI>
10.1016/j.bmcl.2009.07.009

>  <InChI-Key>
OEBMCHWLROZTPG-UHFFFAOYSA-N

>  <Molecular Formula>
C17H14NO4Cl

>  <Monoisotopic Mass>
331.061136

>  <Druglikeness>
1.4529

$$$$
Compound 379
Actelion Java MolfileCreator 1.0

 23 25  0  0  0  0  0  0  0  0999 V2000
    0.0000   -0.0000   -0.0000 Cl  0  0  0  0  0  0  0  0  0  0  0  0
   -0.0119    1.5191   -0.0000 C   0  0  0  0  0  0  0  0  0  0  0  0
    1.2817    2.2786   -0.0000 C   0  0  0  0  0  0  0  0  0  0  0  0
   -1.3292    2.2786   -0.0000 C   0  0  0  0  0  0  0  0  0  0  0  0
    1.2699    3.7977   -0.0000 C   0  0  0  0  0  0  0  0  0  0  0  0
   -1.3411    3.7977   -0.0000 C   0  0  0  0  0  0  0  0  0  0  0  0
   -0.0475    4.5573   -0.0000 C   0  0  0  0  0  0  0  0  0  0  0  0
    2.5635    4.5573   -0.0000 C   0  0  0  0  0  0  0  0  0  0  0  0
    3.8571    3.8096   -0.0000 N   0  0  0  0  0  0  0  0  0  0  0  0
    5.1507    4.5692   -0.0000 C   0  0  0  0  0  0  0  0  0  0  0  0
    6.4443    3.8215   -0.0000 C   0  0  0  0  0  0  0  0  0  0  0  0
    7.7379    4.5810   -0.0000 O   0  0  0  0  0  0  0  0  0  0  0  0
    6.4324    2.3261   -0.0000 C   0  0  0  0  0  0  0  0  0  0  0  0
    9.0315    3.8333   -0.0000 C   0  0  0  0  0  0  0  0  0  0  0  0
    7.7260    1.5903   -0.0000 C   0  0  0  0  0  0  0  0  0  0  0  0
    9.0196    2.3380   -0.0000 C   0  0  0  0  0  0  0  0  0  0  0  0
   10.3251    4.5929   -0.0000 C   0  0  0  0  0  0  0  0  0  0  0  0
    7.7142    0.0949   -0.0000 O   0  0  0  0  0  0  0  0  0  0  0  0
   10.3132    1.6022   -0.0000 C   0  0  0  0  0  0  0  0  0  0  0  0
   11.6187    3.8452   -0.0000 C   0  0  0  0  0  0  0  0  0  0  0  0
   10.3014    0.1068   -0.0000 O   0  0  0  0  0  0  0  0  0  0  0  0
   11.6068    2.3617   -0.0000 C   0  0  0  0  0  0  0  0  0  0  0  0
   12.9005    1.6259   -0.0000 O   0  0  0  0  0  0  0  0  0  0  0  0
  1  2  1  0  0  0  0
  2  3  2  0  0  0  0
  2  4  1  0  0  0  0
  3  5  1  0  0  0  0
  4  6  2  0  0  0  0
  5  7  2  0  0  0  0
  5  8  1  0  0  0  0
  8  9  1  0  0  0  0
  9 10  1  0  0  0  0
 10 11  1  0  0  0  0
 11 12  1  0  0  0  0
 11 13  2  0  0  0  0
 12 14  1  0  0  0  0
 13 15  1  0  0  0  0
 14 16  2  0  0  0  0
 14 17  1  0  0  0  0
 15 18  2  0  0  0  0
 16 19  1  0  0  0  0
 17 20  2  0  0  0  0
 19 21  1  0  0  0  0
 19 22  2  0  0  0  0
 22 23  1  0  0  0  0
  6  7  1  0  0  0  0
 15 16  1  0  0  0  0
 20 22  1  0  0  0  0
M  END
>  <MolRegNo>
557228

>  <m>
>

>  <Value>
50000

>  <Unit>
nM

>  <Type>
IC50

>  <Ligand Efficiency>


>  <Binding Efficiency>


>  <Surface Efficiency>


>  <Assay Index>
426934

>  <Assay Category>


>  <Assay Organism>
SARS coronavirus

>  <Target ID>
101075

>  <Target Name>
Replicase polyprotein 1ab

>  <Target Organism>
SARS coronavirus

>  <Target Description>
Target is a single protein chain

>  <Sequence Accession>
P0C6X7

>  <Reference>
Bioorg. Med. Chem. Lett. 19 (16), 4538-4541 (2009)

>  <Pubmed ID>
19625187

>  <DOI>
10.1016/j.bmcl.2009.07.009

>  <InChI-Key>
OEBMCHWLROZTPG-UHFFFAOYSA-N

>  <Molecular Formula>
C17H14NO4Cl

>  <Monoisotopic Mass>
331.061136

>  <Druglikeness>
1.4529

$$$$
Compound 380
Actelion Java MolfileCreator 1.0

 21 23  0  0  0  0  0  0  0  0999 V2000
    0.0000   -0.0000   -0.0000 S   0  0  0  0  0  0  0  0  0  0  0  0
   -1.2112    0.8937   -0.0000 C   0  0  0  0  0  0  0  0  0  0  0  0
    1.1995    0.8937   -0.0000 C   0  0  0  0  0  0  0  0  0  0  0  0
   -2.6459    0.4469   -0.0000 N   0  0  0  0  0  0  0  0  0  0  0  0
   -0.7644    2.3284   -0.0000 C   0  0  0  0  0  0  0  0  0  0  0  0
    2.6106    0.4469   -0.0000 C   0  0  0  0  0  0  0  0  0  0  0  0
    0.7291    2.3284   -0.0000 C   0  0  0  0  0  0  0  0  0  0  0  0
   -3.7631    1.4582   -0.0000 C   0  0  0  0  0  0  0  0  0  0  0  0
   -1.5288    3.6337   -0.0000 C   0  0  0  0  0  0  0  0  0  0  0  0
    4.0218   -0.0000   -0.0000 N   0  0  0  0  0  0  0  0  0  0  0  0
    1.4700    3.6220   -0.0000 C   0  0  0  0  0  0  0  0  0  0  0  0
   -5.1978    1.0113   -0.0000 C   0  0  0  0  0  0  0  0  0  0  0  0
   -3.0340    3.6455   -0.0000 O   0  0  0  0  0  0  0  0  0  0  0  0
   -0.7879    4.9390   -0.0000 C   0  0  0  0  0  0  0  0  0  0  0  0
    0.7173    4.9273   -0.0000 C   0  0  0  0  0  0  0  0  0  0  0  0
   -5.6799   -0.3998   -0.0000 O   0  0  0  0  0  0  0  0  0  0  0  0
   -6.4208    1.9051   -0.0000 C   0  0  0  0  0  0  0  0  0  0  0  0
   -0.0470    6.2444   -0.0000 C   0  0  0  0  0  0  0  0  0  0  0  0
    2.1990    4.9390   -0.0000 C   0  0  0  0  0  0  0  0  0  0  0  0
   -7.1851   -0.3881   -0.0000 C   0  0  0  0  0  0  0  0  0  0  0  0
   -7.6320    1.0348   -0.0000 C   0  0  0  0  0  0  0  0  0  0  0  0
  1  2  1  0  0  0  0
  1  3  1  0  0  0  0
  2  4  1  0  0  0  0
  2  5  2  0  0  0  0
  3  6  1  0  0  0  0
  3  7  2  0  0  0  0
  4  8  1  0  0  0  0
  5  9  1  0  0  0  0
  6 10  3  0  0  0  0
  7 11  1  0  0  0  0
  8 12  1  0  0  0  0
  9 13  2  0  0  0  0
  9 14  1  0  0  0  0
 11 15  1  0  0  0  0
 12 16  1  0  0  0  0
 12 17  2  0  0  0  0
 15 18  1  0  0  0  0
 15 19  1  0  0  0  0
 16 20  1  0  0  0  0
 17 21  1  0  0  0  0
  5  7  1  0  0  0  0
 14 15  1  0  0  0  0
 20 21  2  0  0  0  0
M  END
>  <MolRegNo>
356338

>  <m>
=

>  <Value>
16000

>  <Unit>
nM

>  <Type>
IC50

>  <Ligand Efficiency>
0.31

>  <Binding Efficiency>
15.97

>  <Surface Efficiency>
7.26

>  <Assay Index>
266027

>  <Assay Category>


>  <Assay Organism>
SARS coronavirus

>  <Target ID>
20012

>  <Target Name>
SARS coronavirus 3C-like proteinase

>  <Target Organism>
SARS coronavirus

>  <Target Description>
Target is a single protein chain

>  <Sequence Accession>
P0C6U8

>  <Reference>
J. Med. Chem. 49 (17), 5154-5161 (2006)

>  <Pubmed ID>
16913704

>  <DOI>
10.1021/jm060207o

>  <InChI-Key>
OELFRKXRVLKMSJ-UHFFFAOYSA-N

>  <Molecular Formula>
C16H16N2O2S

>  <Monoisotopic Mass>
300.093248

>  <Druglikeness>
-2.8731

$$$$
Compound 381
Actelion Java MolfileCreator 1.0

 12 13  0  0  0  0  0  0  0  0999 V2000
    0.0000   -0.0000   -0.0000 I   0  0  0  0  0  0  0  0  0  0  0  0
    1.2979   -0.7383   -0.0000 C   0  0  0  0  0  0  0  0  0  0  0  0
    2.5839    0.0238   -0.0000 C   0  0  0  0  0  0  0  0  0  0  0  0
    1.2860   -2.2386   -0.0000 C   0  0  0  0  0  0  0  0  0  0  0  0
    3.8818   -0.7144   -0.0000 C   0  0  0  0  0  0  0  0  0  0  0  0
    2.5720   -2.9768   -0.0000 C   0  0  0  0  0  0  0  0  0  0  0  0
    5.2988   -0.2262   -0.0000 C   0  0  0  0  0  0  0  0  0  0  0  0
    3.8818   -2.2148   -0.0000 C   0  0  0  0  0  0  0  0  0  0  0  0
    5.7393    1.2265   -0.0000 O   0  0  0  0  0  0  0  0  0  0  0  0
    6.1799   -1.4289   -0.0000 C   0  0  0  0  0  0  0  0  0  0  0  0
    5.3107   -2.6672   -0.0000 N   0  0  0  0  0  0  0  0  0  0  0  0
    7.6802   -1.4051   -0.0000 O   0  0  0  0  0  0  0  0  0  0  0  0
  1  2  1  0  0  0  0
  2  3  2  0  0  0  0
  2  4  1  0  0  0  0
  3  5  1  0  0  0  0
  4  6  2  0  0  0  0
  5  7  1  0  0  0  0
  5  8  2  0  0  0  0
  7  9  2  0  0  0  0
  7 10  1  0  0  0  0
  8 11  1  0  0  0  0
 10 12  2  0  0  0  0
  6  8  1  0  0  0  0
 10 11  1  0  0  0  0
M  END
>  <MolRegNo>
193423

>  <m>
<

>  <Value>
25

>  <Unit>
%

>  <Type>
Inhibition

>  <Ligand Efficiency>


>  <Binding Efficiency>


>  <Surface Efficiency>


>  <Assay Index>
262887

>  <Assay Category>


>  <Assay Organism>
SARS coronavirus

>  <Target ID>
20012

>  <Target Name>
SARS coronavirus 3C-like proteinase

>  <Target Organism>
SARS coronavirus

>  <Target Description>
Target is a single protein chain

>  <Sequence Accession>
P0C6U8

>  <Reference>
J. Med. Chem. 49 (12), 3440-3443 (2006)

>  <Pubmed ID>
16759084

>  <DOI>
10.1021/jm0602357

>  <InChI-Key>
OEUGDMOJQQLVAZ-UHFFFAOYSA-N

>  <Molecular Formula>
C8H4NO2I

>  <Monoisotopic Mass>
272.928677

>  <Druglikeness>
-0.77322

$$$$
Compound 382
Actelion Java MolfileCreator 1.0

 29 31  0  0  0  0  0  0  0  0999 V2000
    0.0000   -0.0000   -0.0000 O   0  0  0  0  0  0  0  0  0  0  0  0
    0.7301    1.3071   -0.0000 C   0  0  0  0  0  0  0  0  0  0  0  0
   -0.0236    2.6142   -0.0000 C   0  0  0  0  0  0  0  0  0  0  0  0
    2.2138    1.3189   -0.0000 C   0  0  0  0  0  0  0  0  0  0  0  0
   -0.7772    1.3307   -0.0000 O   0  0  0  0  0  0  0  0  0  0  0  0
    0.7065    3.9213   -0.0000 C   0  0  0  0  0  0  0  0  0  0  0  0
   -1.5309    2.6260   -0.0000 C   0  0  0  0  0  0  0  0  0  0  0  0
    2.9557    2.6260   -0.0000 C   0  0  0  0  0  0  0  0  0  0  0  0
    2.1903    3.9331   -0.0000 O   0  0  0  0  0  0  0  0  0  0  0  0
   -0.0471    5.2285   -0.0000 C   0  0  0  0  0  0  0  0  0  0  0  0
    1.4366    5.2285   -0.0000 C   0  0  0  0  0  0  0  0  0  0  0  0
   -2.2963    3.9331   -0.0000 C   0  0  0  0  0  0  0  0  0  0  0  0
   -2.2963    1.3424   -0.0000 C   0  0  0  0  0  0  0  0  0  0  0  0
   -1.6957    1.1540   -0.0000 C   0  0  0  0  0  0  0  0  0  0  0  0
    4.2628    1.9312   -0.0000 C   0  0  0  0  0  0  0  0  0  0  0  0
    4.2628    3.3443   -0.0000 C   0  0  0  0  0  0  0  0  0  0  0  0
    0.6830    6.5356   -0.0000 O   0  0  0  0  0  0  0  0  0  0  0  0
   -1.5544    5.2402   -0.0000 C   0  0  0  0  0  0  0  0  0  0  0  0
   -3.8036    3.9449   -0.0000 C   0  0  0  0  0  0  0  0  0  0  0  0
   -1.5544    0.0589   -0.0000 O   0  0  0  0  0  0  0  0  0  0  0  0
   -3.8036    1.3542   -0.0000 C   0  0  0  0  0  0  0  0  0  0  0  0
    4.2982    0.4475   -0.0000 C   0  0  0  0  0  0  0  0  0  0  0  0
   -0.0707    7.8427   -0.0000 C   0  0  0  0  0  0  0  0  0  0  0  0
   -2.3198    6.5473   -0.0000 O   0  0  0  0  0  0  0  0  0  0  0  0
   -4.5690    2.6613   -0.0000 C   0  0  0  0  0  0  0  0  0  0  0  0
   -5.0871    4.7456   -0.0000 C   0  0  0  0  0  0  0  0  0  0  0  0
   -3.8625    5.4522   -0.0000 C   0  0  0  0  0  0  0  0  0  0  0  0
   -1.5780    7.8545   -0.0000 O   0  0  0  0  0  0  0  0  0  0  0  0
    0.6594    9.1498   -0.0000 C   0  0  0  0  0  0  0  0  0  0  0  0
  1  2  2  0  0  0  0
  2  3  1  0  0  0  0
  2  4  1  0  0  0  0
  3  5  1  1  0  0  0
  3  6  1  0  0  0  0
  3  7  1  0  0  0  0
  4  8  1  0  0  0  0
  6  9  1  0  0  0  0
  6 10  1  0  0  0  0
  6 11  1  6  0  0  0
  7 12  1  0  0  0  0
  7 13  1  0  0  0  0
  7 14  1  6  0  0  0
  8 15  1  0  0  0  0
  8 16  1  6  0  0  0
 10 17  1  6  0  0  0
 10 18  1  0  0  0  0
 12 19  1  6  0  0  0
 13 20  1  1  0  0  0
 13 21  1  0  0  0  0
 15 22  2  0  0  0  0
 17 23  1  0  0  0  0
 18 24  1  6  0  0  0
 19 25  1  0  0  0  0
 19 26  1  0  0  0  0
 19 27  1  0  0  0  0
 23 28  2  0  0  0  0
 23 29  1  0  0  0  0
  8  9  1  0  0  0  0
 12 18  1  0  0  0  0
 21 25  1  0  0  0  0
M  END
>  <MolRegNo>
84507

>  <m>


>  <Value>
0

>  <Unit>


>  <Type>
Activity

>  <Ligand Efficiency>


>  <Binding Efficiency>


>  <Surface Efficiency>


>  <Assay Index>
294025

>  <Assay Category>


>  <Assay Organism>
SARS coronavirus

>  <Target ID>
100499

>  <Target Name>
SARS coronavirus

>  <Target Organism>
SARS coronavirus

>  <Target Description>
Target is a complete organism

>  <Sequence Accession>


>  <Reference>
J. Med. Chem. 50 (17), 4087-4095 (2007)

>  <Pubmed ID>
17663539

>  <DOI>
10.1021/jm070295s

>  <InChI-Key>
OHCQJHSOBUTRHG-LGIRNHOVSA-N

>  <Molecular Formula>
C22H34O7

>  <Monoisotopic Mass>
410.230455

>  <Druglikeness>
-4.6773

$$$$
Compound 383
Actelion Java MolfileCreator 1.0

 29 31  0  0  0  0  0  0  0  0999 V2000
    0.0000   -0.0000   -0.0000 O   0  0  0  0  0  0  0  0  0  0  0  0
    0.7301    1.3071   -0.0000 C   0  0  0  0  0  0  0  0  0  0  0  0
   -0.0236    2.6142   -0.0000 C   0  0  0  0  0  0  0  0  0  0  0  0
    2.2138    1.3189   -0.0000 C   0  0  0  0  0  0  0  0  0  0  0  0
   -0.7772    1.3307   -0.0000 O   0  0  0  0  0  0  0  0  0  0  0  0
    0.7065    3.9213   -0.0000 C   0  0  0  0  0  0  0  0  0  0  0  0
   -1.5309    2.6260   -0.0000 C   0  0  0  0  0  0  0  0  0  0  0  0
    2.9557    2.6260   -0.0000 C   0  0  0  0  0  0  0  0  0  0  0  0
    2.1903    3.9331   -0.0000 O   0  0  0  0  0  0  0  0  0  0  0  0
   -0.0471    5.2285   -0.0000 C   0  0  0  0  0  0  0  0  0  0  0  0
    1.4366    5.2285   -0.0000 C   0  0  0  0  0  0  0  0  0  0  0  0
   -2.2963    3.9331   -0.0000 C   0  0  0  0  0  0  0  0  0  0  0  0
   -2.2963    1.3424   -0.0000 C   0  0  0  0  0  0  0  0  0  0  0  0
   -1.6957    1.1540   -0.0000 C   0  0  0  0  0  0  0  0  0  0  0  0
    4.2628    1.9312   -0.0000 C   0  0  0  0  0  0  0  0  0  0  0  0
    4.2628    3.3443   -0.0000 C   0  0  0  0  0  0  0  0  0  0  0  0
    0.6830    6.5356   -0.0000 O   0  0  0  0  0  0  0  0  0  0  0  0
   -1.5544    5.2402   -0.0000 C   0  0  0  0  0  0  0  0  0  0  0  0
   -3.8036    3.9449   -0.0000 C   0  0  0  0  0  0  0  0  0  0  0  0
   -1.5544    0.0589   -0.0000 O   0  0  0  0  0  0  0  0  0  0  0  0
   -3.8036    1.3542   -0.0000 C   0  0  0  0  0  0  0  0  0  0  0  0
    4.2982    0.4475   -0.0000 C   0  0  0  0  0  0  0  0  0  0  0  0
   -0.0707    7.8427   -0.0000 C   0  0  0  0  0  0  0  0  0  0  0  0
   -2.3198    6.5473   -0.0000 O   0  0  0  0  0  0  0  0  0  0  0  0
   -4.5690    2.6613   -0.0000 C   0  0  0  0  0  0  0  0  0  0  0  0
   -5.0871    4.7456   -0.0000 C   0  0  0  0  0  0  0  0  0  0  0  0
   -3.8625    5.4522   -0.0000 C   0  0  0  0  0  0  0  0  0  0  0  0
   -1.5780    7.8545   -0.0000 O   0  0  0  0  0  0  0  0  0  0  0  0
    0.6594    9.1498   -0.0000 C   0  0  0  0  0  0  0  0  0  0  0  0
  1  2  2  0  0  0  0
  2  3  1  0  0  0  0
  2  4  1  0  0  0  0
  3  5  1  1  0  0  0
  3  6  1  0  0  0  0
  3  7  1  0  0  0  0
  4  8  1  0  0  0  0
  6  9  1  0  0  0  0
  6 10  1  0  0  0  0
  6 11  1  6  0  0  0
  7 12  1  0  0  0  0
  7 13  1  0  0  0  0
  7 14  1  6  0  0  0
  8 15  1  0  0  0  0
  8 16  1  6  0  0  0
 10 17  1  6  0  0  0
 10 18  1  0  0  0  0
 12 19  1  6  0  0  0
 13 20  1  1  0  0  0
 13 21  1  0  0  0  0
 15 22  2  0  0  0  0
 17 23  1  0  0  0  0
 18 24  1  6  0  0  0
 19 25  1  0  0  0  0
 19 26  1  0  0  0  0
 19 27  1  0  0  0  0
 23 28  2  0  0  0  0
 23 29  1  0  0  0  0
  8  9  1  0  0  0  0
 12 18  1  0  0  0  0
 21 25  1  0  0  0  0
M  END
>  <MolRegNo>
84507

>  <m>
=

>  <Value>
7500

>  <Unit>
nM

>  <Type>
EC50

>  <Ligand Efficiency>


>  <Binding Efficiency>


>  <Surface Efficiency>


>  <Assay Index>
294026

>  <Assay Category>


>  <Assay Organism>
SARS coronavirus

>  <Target ID>
100499

>  <Target Name>
SARS coronavirus

>  <Target Organism>
SARS coronavirus

>  <Target Description>
Target is a complete organism

>  <Sequence Accession>


>  <Reference>
J. Med. Chem. 50 (17), 4087-4095 (2007)

>  <Pubmed ID>
17663539

>  <DOI>
10.1021/jm070295s

>  <InChI-Key>
OHCQJHSOBUTRHG-LGIRNHOVSA-N

>  <Molecular Formula>
C22H34O7

>  <Monoisotopic Mass>
410.230455

>  <Druglikeness>
-4.6773

$$$$
Compound 384
Actelion Java MolfileCreator 1.0

 29 31  0  0  0  0  0  0  0  0999 V2000
    0.0000   -0.0000   -0.0000 O   0  0  0  0  0  0  0  0  0  0  0  0
    0.7301    1.3071   -0.0000 C   0  0  0  0  0  0  0  0  0  0  0  0
   -0.0236    2.6142   -0.0000 C   0  0  0  0  0  0  0  0  0  0  0  0
    2.2138    1.3189   -0.0000 C   0  0  0  0  0  0  0  0  0  0  0  0
   -0.7772    1.3307   -0.0000 O   0  0  0  0  0  0  0  0  0  0  0  0
    0.7065    3.9213   -0.0000 C   0  0  0  0  0  0  0  0  0  0  0  0
   -1.5309    2.6260   -0.0000 C   0  0  0  0  0  0  0  0  0  0  0  0
    2.9557    2.6260   -0.0000 C   0  0  0  0  0  0  0  0  0  0  0  0
    2.1903    3.9331   -0.0000 O   0  0  0  0  0  0  0  0  0  0  0  0
   -0.0471    5.2285   -0.0000 C   0  0  0  0  0  0  0  0  0  0  0  0
    1.4366    5.2285   -0.0000 C   0  0  0  0  0  0  0  0  0  0  0  0
   -2.2963    3.9331   -0.0000 C   0  0  0  0  0  0  0  0  0  0  0  0
   -2.2963    1.3424   -0.0000 C   0  0  0  0  0  0  0  0  0  0  0  0
   -1.6957    1.1540   -0.0000 C   0  0  0  0  0  0  0  0  0  0  0  0
    4.2628    1.9312   -0.0000 C   0  0  0  0  0  0  0  0  0  0  0  0
    4.2628    3.3443   -0.0000 C   0  0  0  0  0  0  0  0  0  0  0  0
    0.6830    6.5356   -0.0000 O   0  0  0  0  0  0  0  0  0  0  0  0
   -1.5544    5.2402   -0.0000 C   0  0  0  0  0  0  0  0  0  0  0  0
   -3.8036    3.9449   -0.0000 C   0  0  0  0  0  0  0  0  0  0  0  0
   -1.5544    0.0589   -0.0000 O   0  0  0  0  0  0  0  0  0  0  0  0
   -3.8036    1.3542   -0.0000 C   0  0  0  0  0  0  0  0  0  0  0  0
    4.2982    0.4475   -0.0000 C   0  0  0  0  0  0  0  0  0  0  0  0
   -0.0707    7.8427   -0.0000 C   0  0  0  0  0  0  0  0  0  0  0  0
   -2.3198    6.5473   -0.0000 O   0  0  0  0  0  0  0  0  0  0  0  0
   -4.5690    2.6613   -0.0000 C   0  0  0  0  0  0  0  0  0  0  0  0
   -5.0871    4.7456   -0.0000 C   0  0  0  0  0  0  0  0  0  0  0  0
   -3.8625    5.4522   -0.0000 C   0  0  0  0  0  0  0  0  0  0  0  0
   -1.5780    7.8545   -0.0000 O   0  0  0  0  0  0  0  0  0  0  0  0
    0.6594    9.1498   -0.0000 C   0  0  0  0  0  0  0  0  0  0  0  0
  1  2  2  0  0  0  0
  2  3  1  0  0  0  0
  2  4  1  0  0  0  0
  3  5  1  1  0  0  0
  3  6  1  0  0  0  0
  3  7  1  0  0  0  0
  4  8  1  0  0  0  0
  6  9  1  0  0  0  0
  6 10  1  0  0  0  0
  6 11  1  6  0  0  0
  7 12  1  0  0  0  0
  7 13  1  0  0  0  0
  7 14  1  6  0  0  0
  8 15  1  0  0  0  0
  8 16  1  6  0  0  0
 10 17  1  6  0  0  0
 10 18  1  0  0  0  0
 12 19  1  6  0  0  0
 13 20  1  1  0  0  0
 13 21  1  0  0  0  0
 15 22  2  0  0  0  0
 17 23  1  0  0  0  0
 18 24  1  6  0  0  0
 19 25  1  0  0  0  0
 19 26  1  0  0  0  0
 19 27  1  0  0  0  0
 23 28  2  0  0  0  0
 23 29  1  0  0  0  0
  8  9  1  0  0  0  0
 12 18  1  0  0  0  0
 21 25  1  0  0  0  0
M  END
>  <MolRegNo>
84507

>  <m>
=

>  <Value>
50

>  <Unit>
%

>  <Type>
Inhibition

>  <Ligand Efficiency>


>  <Binding Efficiency>


>  <Surface Efficiency>


>  <Assay Index>
294024

>  <Assay Category>


>  <Assay Organism>
SARS coronavirus

>  <Target ID>
100499

>  <Target Name>
SARS coronavirus

>  <Target Organism>
SARS coronavirus

>  <Target Description>
Target is a complete organism

>  <Sequence Accession>


>  <Reference>
J. Med. Chem. 50 (17), 4087-4095 (2007)

>  <Pubmed ID>
17663539

>  <DOI>
10.1021/jm070295s

>  <InChI-Key>
OHCQJHSOBUTRHG-LGIRNHOVSA-N

>  <Molecular Formula>
C22H34O7

>  <Monoisotopic Mass>
410.230455

>  <Druglikeness>
-4.6773

$$$$
Compound 385
Actelion Java MolfileCreator 1.0

 29 31  0  0  0  0  0  0  0  0999 V2000
    0.0000   -0.0000   -0.0000 O   0  0  0  0  0  0  0  0  0  0  0  0
    0.7301    1.3071   -0.0000 C   0  0  0  0  0  0  0  0  0  0  0  0
   -0.0236    2.6142   -0.0000 C   0  0  0  0  0  0  0  0  0  0  0  0
    2.2138    1.3189   -0.0000 C   0  0  0  0  0  0  0  0  0  0  0  0
   -0.7772    1.3307   -0.0000 O   0  0  0  0  0  0  0  0  0  0  0  0
    0.7065    3.9213   -0.0000 C   0  0  0  0  0  0  0  0  0  0  0  0
   -1.5309    2.6260   -0.0000 C   0  0  0  0  0  0  0  0  0  0  0  0
    2.9557    2.6260   -0.0000 C   0  0  0  0  0  0  0  0  0  0  0  0
    2.1903    3.9331   -0.0000 O   0  0  0  0  0  0  0  0  0  0  0  0
   -0.0471    5.2285   -0.0000 C   0  0  0  0  0  0  0  0  0  0  0  0
    1.4366    5.2285   -0.0000 C   0  0  0  0  0  0  0  0  0  0  0  0
   -2.2963    3.9331   -0.0000 C   0  0  0  0  0  0  0  0  0  0  0  0
   -2.2963    1.3424   -0.0000 C   0  0  0  0  0  0  0  0  0  0  0  0
   -1.6957    1.1540   -0.0000 C   0  0  0  0  0  0  0  0  0  0  0  0
    4.2628    1.9312   -0.0000 C   0  0  0  0  0  0  0  0  0  0  0  0
    4.2628    3.3443   -0.0000 C   0  0  0  0  0  0  0  0  0  0  0  0
    0.6830    6.5356   -0.0000 O   0  0  0  0  0  0  0  0  0  0  0  0
   -1.5544    5.2402   -0.0000 C   0  0  0  0  0  0  0  0  0  0  0  0
   -3.8036    3.9449   -0.0000 C   0  0  0  0  0  0  0  0  0  0  0  0
   -1.5544    0.0589   -0.0000 O   0  0  0  0  0  0  0  0  0  0  0  0
   -3.8036    1.3542   -0.0000 C   0  0  0  0  0  0  0  0  0  0  0  0
    4.2982    0.4475   -0.0000 C   0  0  0  0  0  0  0  0  0  0  0  0
   -0.0707    7.8427   -0.0000 C   0  0  0  0  0  0  0  0  0  0  0  0
   -2.3198    6.5473   -0.0000 O   0  0  0  0  0  0  0  0  0  0  0  0
   -4.5690    2.6613   -0.0000 C   0  0  0  0  0  0  0  0  0  0  0  0
   -5.0871    4.7456   -0.0000 C   0  0  0  0  0  0  0  0  0  0  0  0
   -3.8625    5.4522   -0.0000 C   0  0  0  0  0  0  0  0  0  0  0  0
   -1.5780    7.8545   -0.0000 O   0  0  0  0  0  0  0  0  0  0  0  0
    0.6594    9.1498   -0.0000 C   0  0  0  0  0  0  0  0  0  0  0  0
  1  2  2  0  0  0  0
  2  3  1  0  0  0  0
  2  4  1  0  0  0  0
  3  5  1  1  0  0  0
  3  6  1  0  0  0  0
  3  7  1  0  0  0  0
  4  8  1  0  0  0  0
  6  9  1  0  0  0  0
  6 10  1  0  0  0  0
  6 11  1  6  0  0  0
  7 12  1  0  0  0  0
  7 13  1  0  0  0  0
  7 14  1  6  0  0  0
  8 15  1  0  0  0  0
  8 16  1  6  0  0  0
 10 17  1  6  0  0  0
 10 18  1  0  0  0  0
 12 19  1  6  0  0  0
 13 20  1  1  0  0  0
 13 21  1  0  0  0  0
 15 22  2  0  0  0  0
 17 23  1  0  0  0  0
 18 24  1  6  0  0  0
 19 25  1  0  0  0  0
 19 26  1  0  0  0  0
 19 27  1  0  0  0  0
 23 28  2  0  0  0  0
 23 29  1  0  0  0  0
  8  9  1  0  0  0  0
 12 18  1  0  0  0  0
 21 25  1  0  0  0  0
M  END
>  <MolRegNo>
84507

>  <m>
<

>  <Value>
25

>  <Unit>
%

>  <Type>
Inhibition

>  <Ligand Efficiency>


>  <Binding Efficiency>


>  <Surface Efficiency>


>  <Assay Index>
294022

>  <Assay Category>


>  <Assay Organism>
SARS coronavirus

>  <Target ID>
100499

>  <Target Name>
SARS coronavirus

>  <Target Organism>
SARS coronavirus

>  <Target Description>
Target is a complete organism

>  <Sequence Accession>


>  <Reference>
J. Med. Chem. 50 (17), 4087-4095 (2007)

>  <Pubmed ID>
17663539

>  <DOI>
10.1021/jm070295s

>  <InChI-Key>
OHCQJHSOBUTRHG-LGIRNHOVSA-N

>  <Molecular Formula>
C22H34O7

>  <Monoisotopic Mass>
410.230455

>  <Druglikeness>
-4.6773

$$$$
Compound 386
Actelion Java MolfileCreator 1.0

 29 31  0  0  0  0  0  0  0  0999 V2000
    0.0000   -0.0000   -0.0000 O   0  0  0  0  0  0  0  0  0  0  0  0
    0.7301    1.3071   -0.0000 C   0  0  0  0  0  0  0  0  0  0  0  0
   -0.0236    2.6142   -0.0000 C   0  0  0  0  0  0  0  0  0  0  0  0
    2.2138    1.3189   -0.0000 C   0  0  0  0  0  0  0  0  0  0  0  0
   -0.7772    1.3307   -0.0000 O   0  0  0  0  0  0  0  0  0  0  0  0
    0.7065    3.9213   -0.0000 C   0  0  0  0  0  0  0  0  0  0  0  0
   -1.5309    2.6260   -0.0000 C   0  0  0  0  0  0  0  0  0  0  0  0
    2.9557    2.6260   -0.0000 C   0  0  0  0  0  0  0  0  0  0  0  0
    2.1903    3.9331   -0.0000 O   0  0  0  0  0  0  0  0  0  0  0  0
   -0.0471    5.2285   -0.0000 C   0  0  0  0  0  0  0  0  0  0  0  0
    1.4366    5.2285   -0.0000 C   0  0  0  0  0  0  0  0  0  0  0  0
   -2.2963    3.9331   -0.0000 C   0  0  0  0  0  0  0  0  0  0  0  0
   -2.2963    1.3424   -0.0000 C   0  0  0  0  0  0  0  0  0  0  0  0
   -1.6957    1.1540   -0.0000 C   0  0  0  0  0  0  0  0  0  0  0  0
    4.2628    1.9312   -0.0000 C   0  0  0  0  0  0  0  0  0  0  0  0
    4.2628    3.3443   -0.0000 C   0  0  0  0  0  0  0  0  0  0  0  0
    0.6830    6.5356   -0.0000 O   0  0  0  0  0  0  0  0  0  0  0  0
   -1.5544    5.2402   -0.0000 C   0  0  0  0  0  0  0  0  0  0  0  0
   -3.8036    3.9449   -0.0000 C   0  0  0  0  0  0  0  0  0  0  0  0
   -1.5544    0.0589   -0.0000 O   0  0  0  0  0  0  0  0  0  0  0  0
   -3.8036    1.3542   -0.0000 C   0  0  0  0  0  0  0  0  0  0  0  0
    4.2982    0.4475   -0.0000 C   0  0  0  0  0  0  0  0  0  0  0  0
   -0.0707    7.8427   -0.0000 C   0  0  0  0  0  0  0  0  0  0  0  0
   -2.3198    6.5473   -0.0000 O   0  0  0  0  0  0  0  0  0  0  0  0
   -4.5690    2.6613   -0.0000 C   0  0  0  0  0  0  0  0  0  0  0  0
   -5.0871    4.7456   -0.0000 C   0  0  0  0  0  0  0  0  0  0  0  0
   -3.8625    5.4522   -0.0000 C   0  0  0  0  0  0  0  0  0  0  0  0
   -1.5780    7.8545   -0.0000 O   0  0  0  0  0  0  0  0  0  0  0  0
    0.6594    9.1498   -0.0000 C   0  0  0  0  0  0  0  0  0  0  0  0
  1  2  2  0  0  0  0
  2  3  1  0  0  0  0
  2  4  1  0  0  0  0
  3  5  1  1  0  0  0
  3  6  1  0  0  0  0
  3  7  1  0  0  0  0
  4  8  1  0  0  0  0
  6  9  1  0  0  0  0
  6 10  1  0  0  0  0
  6 11  1  6  0  0  0
  7 12  1  0  0  0  0
  7 13  1  0  0  0  0
  7 14  1  6  0  0  0
  8 15  1  0  0  0  0
  8 16  1  6  0  0  0
 10 17  1  6  0  0  0
 10 18  1  0  0  0  0
 12 19  1  6  0  0  0
 13 20  1  1  0  0  0
 13 21  1  0  0  0  0
 15 22  2  0  0  0  0
 17 23  1  0  0  0  0
 18 24  1  6  0  0  0
 19 25  1  0  0  0  0
 19 26  1  0  0  0  0
 19 27  1  0  0  0  0
 23 28  2  0  0  0  0
 23 29  1  0  0  0  0
  8  9  1  0  0  0  0
 12 18  1  0  0  0  0
 21 25  1  0  0  0  0
M  END
>  <MolRegNo>
84507

>  <m>
=

>  <Value>
25

>  <Unit>
%

>  <Type>
Inhibition

>  <Ligand Efficiency>


>  <Binding Efficiency>


>  <Surface Efficiency>


>  <Assay Index>
294023

>  <Assay Category>


>  <Assay Organism>
SARS coronavirus

>  <Target ID>
100499

>  <Target Name>
SARS coronavirus

>  <Target Organism>
SARS coronavirus

>  <Target Description>
Target is a complete organism

>  <Sequence Accession>


>  <Reference>
J. Med. Chem. 50 (17), 4087-4095 (2007)

>  <Pubmed ID>
17663539

>  <DOI>
10.1021/jm070295s

>  <InChI-Key>
OHCQJHSOBUTRHG-LGIRNHOVSA-N

>  <Molecular Formula>
C22H34O7

>  <Monoisotopic Mass>
410.230455

>  <Druglikeness>
-4.6773

$$$$
Compound 387
Actelion Java MolfileCreator 1.0

 29 32  0  0  0  0  0  0  0  0999 V2000
    0.0000   -0.0000   -0.0000 F   0  0  0  0  0  0  0  0  0  0  0  0
   -1.3043   -0.7470   -0.0000 C   0  0  0  0  0  0  0  0  0  0  0  0
   -2.6085   -0.0000   -0.0000 C   0  0  0  0  0  0  0  0  0  0  0  0
   -1.3161   -2.2291   -0.0000 C   0  0  0  0  0  0  0  0  0  0  0  0
   -3.9128   -0.7351   -0.0000 C   0  0  0  0  0  0  0  0  0  0  0  0
   -2.6204   -2.9761   -0.0000 C   0  0  0  0  0  0  0  0  0  0  0  0
   -3.9247   -2.2173   -0.0000 C   0  0  0  0  0  0  0  0  0  0  0  0
   -5.2171    0.0237   -0.0000 C   0  0  0  0  0  0  0  0  0  0  0  0
   -6.5213   -0.7114   -0.0000 N   0  0  0  0  0  0  0  0  0  0  0  0
   -7.8256    0.0474   -0.0000 C   0  0  0  0  0  0  0  0  0  0  0  0
   -7.8375    1.5533   -0.0000 O   0  0  0  0  0  0  0  0  0  0  0  0
   -9.1299   -0.6877   -0.0000 C   0  0  0  0  0  0  0  0  0  0  0  0
   -9.1417   -2.1698   -0.0000 C   0  0  0  0  0  0  0  0  0  0  0  0
  -10.4460    0.0711   -0.0000 C   0  0  0  0  0  0  0  0  0  0  0  0
  -10.4460   -2.9050   -0.0000 C   0  0  0  0  0  0  0  0  0  0  0  0
  -11.7621   -0.6640   -0.0000 C   0  0  0  0  0  0  0  0  0  0  0  0
  -11.7621   -2.1461   -0.0000 N   0  0  0  0  0  0  0  0  0  0  0  0
  -13.0664   -2.8931   -0.0000 C   0  0  0  0  0  0  0  0  0  0  0  0
  -13.0664   -4.3752   -0.0000 C   0  0  0  0  0  0  0  0  0  0  0  0
  -14.3825   -2.1343   -0.0000 C   0  0  0  0  0  0  0  0  0  0  0  0
  -14.3707   -5.1104   -0.0000 C   0  0  0  0  0  0  0  0  0  0  0  0
  -11.7740   -5.0985   -0.0000 C   0  0  0  0  0  0  0  0  0  0  0  0
  -14.3825   -6.6043   -0.0000 C   0  0  0  0  0  0  0  0  0  0  0  0
  -15.6749   -4.3515   -0.0000 C   0  0  0  0  0  0  0  0  0  0  0  0
  -11.7740   -6.5925   -0.0000 C   0  0  0  0  0  0  0  0  0  0  0  0
  -15.6868   -7.3513   -0.0000 C   0  0  0  0  0  0  0  0  0  0  0  0
  -13.1020   -7.3395   -0.0000 C   0  0  0  0  0  0  0  0  0  0  0  0
  -16.9792   -5.0866   -0.0000 C   0  0  0  0  0  0  0  0  0  0  0  0
  -16.9911   -6.5925   -0.0000 N   0  0  0  0  0  0  0  0  0  0  0  0
  1  2  1  0  0  0  0
  2  3  2  0  0  0  0
  2  4  1  0  0  0  0
  3  5  1  0  0  0  0
  4  6  2  0  0  0  0
  5  7  2  0  0  0  0
  5  8  1  0  0  0  0
  8  9  1  0  0  0  0
  9 10  1  0  0  0  0
 10 11  2  0  0  0  0
 10 12  1  0  0  0  0
 12 13  1  0  0  0  0
 12 14  1  0  0  0  0
 13 15  1  0  0  0  0
 14 16  1  0  0  0  0
 15 17  1  0  0  0  0
 17 18  1  0  0  0  0
 18 19  1  0  0  0  0
 18 20  1  0  0  0  0
 19 21  1  0  0  0  0
 19 22  2  0  0  0  0
 21 23  1  0  0  0  0
 21 24  2  0  0  0  0
 22 25  1  0  0  0  0
 23 26  2  0  0  0  0
 23 27  1  0  0  0  0
 24 28  1  0  0  0  0
 26 29  1  0  0  0  0
  6  7  1  0  0  0  0
 16 17  1  0  0  0  0
 25 27  2  0  0  0  0
 28 29  2  0  0  0  0
M  END
>  <MolRegNo>
1732325

>  <m>
>

>  <Value>
50000

>  <Unit>
nM

>  <Type>
EC50

>  <Ligand Efficiency>


>  <Binding Efficiency>


>  <Surface Efficiency>


>  <Assay Index>
843084

>  <Assay Category>


>  <Assay Organism>
SARS coronavirus

>  <Target ID>
100499

>  <Target Name>
SARS coronavirus

>  <Target Organism>
SARS coronavirus

>  <Target Description>
Target is a complete organism

>  <Sequence Accession>


>  <Reference>
J. Med. Chem. 57 (6), 2393-2412 (2014)

>  <Pubmed ID>
24568342

>  <DOI>
10.1021/jm401712t

>  <InChI-Key>
OJJUBNLUESFDRE-UHFFFAOYSA-N

>  <Molecular Formula>
C24H26N3OF

>  <Monoisotopic Mass>
391.205990

>  <Druglikeness>
5.4254

$$$$
Compound 388
Actelion Java MolfileCreator 1.0

 20 22  0  0  0  0  0  0  0  0999 V2000
    0.0000   -0.0000   -0.0000 F   0  0  0  0  0  0  0  0  0  0  0  0
    1.0778   -0.6194   -0.0000 C   0  0  0  0  0  0  0  0  0  0  0  0
    1.0654   -2.1804   -0.0000 N   0  0  0  0  0  0  0  0  0  0  0  0
    2.4405    0.1982   -0.0000 C   0  0  0  0  0  0  0  0  0  0  0  0
    2.4282   -2.9733   -0.0000 C   0  0  0  0  0  0  0  0  0  0  0  0
    3.7909   -0.5947   -0.0000 C   0  0  0  0  0  0  0  0  0  0  0  0
    2.4158   -4.2245   -0.0000 N   0  0  0  0  0  0  0  0  0  0  0  0
    3.7785   -2.1556   -0.0000 C   0  0  0  0  0  0  0  0  0  0  0  0
    5.2775   -0.0991   -0.0000 N   0  0  0  0  0  0  0  0  0  0  0  0
    5.2651   -2.6264   -0.0000 N   0  0  0  0  0  0  0  0  0  0  0  0
    6.1819   -1.3380   -0.0000 C   0  0  0  0  0  0  0  0  0  0  0  0
    5.7483    1.4123   -0.0000 C   0  0  0  0  0  0  0  0  0  0  0  0
    7.2597    1.7840   -0.0000 C   0  0  0  0  0  0  0  0  0  0  0  0
    4.8935    2.7379   -0.0000 C   0  0  0  0  0  0  0  0  0  0  0  0
    7.3588    3.3697   -0.0000 C   0  0  0  0  0  0  0  0  0  0  0  0
    3.6175    2.8370   -0.0000 O   0  0  0  0  0  0  0  0  0  0  0  0
    5.8970    3.9520   -0.0000 C   0  0  0  0  0  0  0  0  0  0  0  0
    8.6844    4.2121   -0.0000 C   0  0  0  0  0  0  0  0  0  0  0  0
    5.5749    5.1908   -0.0000 O   0  0  0  0  0  0  0  0  0  0  0  0
    9.7870    3.6299   -0.0000 O   0  0  0  0  0  0  0  0  0  0  0  0
  1  2  1  0  0  0  0
  2  3  2  0  0  0  0
  2  4  1  0  0  0  0
  3  5  1  0  0  0  0
  4  6  2  0  0  0  0
  5  7  1  0  0  0  0
  5  8  2  0  0  0  0
  6  9  1  0  0  0  0
  8 10  1  0  0  0  0
  9 11  1  0  0  0  0
 12  9  1  1  0  0  0
 12 13  1  0  0  0  0
 12 14  1  0  0  0  0
 13 15  2  0  0  0  0
 14 16  1  6  0  0  0
 14 17  1  0  0  0  0
 15 18  1  0  0  0  0
 17 19  1  6  0  0  0
 18 20  1  0  0  0  0
  6  8  1  0  0  0  0
 10 11  2  0  0  0  0
 15 17  1  0  0  0  0
M  END
>  <MolRegNo>
1957401

>  <m>


>  <Value>
0

>  <Unit>


>  <Type>
Activity

>  <Ligand Efficiency>


>  <Binding Efficiency>


>  <Surface Efficiency>


>  <Assay Index>
956765

>  <Assay Category>


>  <Assay Organism>
SARS coronavirus

>  <Target ID>
100499

>  <Target Name>
SARS coronavirus

>  <Target Organism>
SARS coronavirus

>  <Target Description>
Target is a complete organism

>  <Sequence Accession>


>  <Reference>
Bioorg. Med. Chem. 23 (17), 5496-5501 (2015)

>  <Pubmed ID>
26260336

>  <DOI>
10.1016/j.bmc.2015.07.039

>  <InChI-Key>
OJVCXSPIMJTDOJ-GGVZMXCHSA-N

>  <Molecular Formula>
C12H13N4O3F

>  <Monoisotopic Mass>
280.097169

>  <Druglikeness>
0.42182

$$$$
Compound 389
Actelion Java MolfileCreator 1.0

 30 32  0  0  0  0  0  0  0  0999 V2000
    0.0000   -0.0000   -0.0000 S   0  0  0  0  0  0  0  0  0  0  0  0
    1.2851   -0.7378   -0.0000 C   0  0  0  0  0  0  0  0  0  0  0  0
   -1.3089   -0.7378   -0.0000 C   0  0  0  0  0  0  0  0  0  0  0  0
    1.2613   -2.2252   -0.0000 N   0  0  0  0  0  0  0  0  0  0  0  0
    2.5583    0.0357   -0.0000 N   0  0  0  0  0  0  0  0  0  0  0  0
   -2.6178    0.0238   -0.0000 C   0  0  0  0  0  0  0  0  0  0  0  0
    2.5464   -2.9629   -0.0000 C   0  0  0  0  0  0  0  0  0  0  0  0
    3.8434   -0.6902   -0.0000 C   0  0  0  0  0  0  0  0  0  0  0  0
   -2.6297    1.5350   -0.0000 O   0  0  0  0  0  0  0  0  0  0  0  0
   -3.9267   -0.7140   -0.0000 N   0  0  0  0  0  0  0  0  0  0  0  0
    2.5345   -4.4503   -0.0000 O   0  0  0  0  0  0  0  0  0  0  0  0
    3.8315   -2.2014   -0.0000 C   0  0  0  0  0  0  0  0  0  0  0  0
    5.1286    0.0833   -0.0000 C   0  0  0  0  0  0  0  0  0  0  0  0
   -5.2357    0.0476   -0.0000 C   0  0  0  0  0  0  0  0  0  0  0  0
    5.1167   -2.9391   -0.0000 C   0  0  0  0  0  0  0  0  0  0  0  0
    6.4137   -0.6545   -0.0000 C   0  0  0  0  0  0  0  0  0  0  0  0
    5.1048    1.5945   -0.0000 C   0  0  0  0  0  0  0  0  0  0  0  0
   -6.5565   -0.6902   -0.0000 C   0  0  0  0  0  0  0  0  0  0  0  0
   -5.2476    1.5707   -0.0000 C   0  0  0  0  0  0  0  0  0  0  0  0
    6.3899   -3.6769   -0.0000 N   0  0  0  0  0  0  0  0  0  0  0  0
    7.6988    0.1071   -0.0000 C   0  0  0  0  0  0  0  0  0  0  0  0
    6.4018    2.3560   -0.0000 C   0  0  0  0  0  0  0  0  0  0  0  0
   -7.8654    0.0714   -0.0000 C   0  0  0  0  0  0  0  0  0  0  0  0
   -6.5684    2.3203   -0.0000 C   0  0  0  0  0  0  0  0  0  0  0  0
    7.6869    1.6183   -0.0000 C   0  0  0  0  0  0  0  0  0  0  0  0
   -7.8773    1.5826   -0.0000 C   0  0  0  0  0  0  0  0  0  0  0  0
   -9.1862    2.3441   -0.0000 C   0  0  0  0  0  0  0  0  0  0  0  0
   -8.4603    3.6531   -0.0000 C   0  0  0  0  0  0  0  0  0  0  0  0
   -9.9596    1.0709   -0.0000 C   0  0  0  0  0  0  0  0  0  0  0  0
  -10.5070    3.1057   -0.0000 C   0  0  0  0  0  0  0  0  0  0  0  0
  1  2  1  0  0  0  0
  1  3  1  0  0  0  0
  2  4  2  0  0  0  0
  2  5  1  0  0  0  0
  3  6  1  0  0  0  0
  4  7  1  0  0  0  0
  5  8  2  0  0  0  0
  6  9  2  0  0  0  0
  6 10  1  0  0  0  0
  7 11  1  0  0  0  0
  7 12  2  0  0  0  0
  8 13  1  0  0  0  0
 10 14  1  0  0  0  0
 12 15  1  0  0  0  0
 13 16  1  0  0  0  0
 13 17  1  0  0  0  0
 14 18  2  0  0  0  0
 14 19  1  0  0  0  0
 15 20  3  0  0  0  0
 16 21  1  0  0  0  0
 17 22  1  0  0  0  0
 18 23  1  0  0  0  0
 19 24  2  0  0  0  0
 21 25  1  0  0  0  0
 23 26  2  0  0  0  0
 26 27  1  0  0  0  0
 27 28  1  0  0  0  0
 27 29  1  0  0  0  0
 27 30  1  0  0  0  0
  8 12  1  0  0  0  0
 22 25  1  0  0  0  0
 24 26  1  0  0  0  0
M  END
>  <MolRegNo>
348815

>  <m>
=

>  <Value>
2.8184e12

>  <Unit>
nM

>  <Type>
IC50

>  <Ligand Efficiency>


>  <Binding Efficiency>


>  <Surface Efficiency>


>  <Assay Index>
262926

>  <Assay Category>


>  <Assay Organism>
SARS coronavirus

>  <Target ID>
20012

>  <Target Name>
SARS coronavirus 3C-like proteinase

>  <Target Organism>
SARS coronavirus

>  <Target Description>
Target is a single protein chain

>  <Sequence Accession>
P0C6U8

>  <Reference>
J. Med. Chem. 49 (12), 3485-3495 (2006)

>  <Pubmed ID>
16759091

>  <DOI>
10.1021/jm050852f

>  <InChI-Key>
OLHLKONSFGSLGT-UHFFFAOYSA-N

>  <Molecular Formula>
C23H28N4O2S

>  <Monoisotopic Mass>
424.193296

>  <Druglikeness>
-10.624

$$$$
Compound 390
Actelion Java MolfileCreator 1.0

 30 32  0  0  0  0  0  0  0  0999 V2000
    0.0000   -0.0000   -0.0000 S   0  0  0  0  0  0  0  0  0  0  0  0
    1.2851   -0.7378   -0.0000 C   0  0  0  0  0  0  0  0  0  0  0  0
   -1.3089   -0.7378   -0.0000 C   0  0  0  0  0  0  0  0  0  0  0  0
    1.2613   -2.2252   -0.0000 N   0  0  0  0  0  0  0  0  0  0  0  0
    2.5583    0.0357   -0.0000 N   0  0  0  0  0  0  0  0  0  0  0  0
   -2.6178    0.0238   -0.0000 C   0  0  0  0  0  0  0  0  0  0  0  0
    2.5464   -2.9629   -0.0000 C   0  0  0  0  0  0  0  0  0  0  0  0
    3.8434   -0.6902   -0.0000 C   0  0  0  0  0  0  0  0  0  0  0  0
   -2.6297    1.5350   -0.0000 O   0  0  0  0  0  0  0  0  0  0  0  0
   -3.9267   -0.7140   -0.0000 N   0  0  0  0  0  0  0  0  0  0  0  0
    2.5345   -4.4503   -0.0000 O   0  0  0  0  0  0  0  0  0  0  0  0
    3.8315   -2.2014   -0.0000 C   0  0  0  0  0  0  0  0  0  0  0  0
    5.1286    0.0833   -0.0000 C   0  0  0  0  0  0  0  0  0  0  0  0
   -5.2357    0.0476   -0.0000 C   0  0  0  0  0  0  0  0  0  0  0  0
    5.1167   -2.9391   -0.0000 C   0  0  0  0  0  0  0  0  0  0  0  0
    6.4137   -0.6545   -0.0000 C   0  0  0  0  0  0  0  0  0  0  0  0
    5.1048    1.5945   -0.0000 C   0  0  0  0  0  0  0  0  0  0  0  0
   -6.5565   -0.6902   -0.0000 C   0  0  0  0  0  0  0  0  0  0  0  0
   -5.2476    1.5707   -0.0000 C   0  0  0  0  0  0  0  0  0  0  0  0
    6.3899   -3.6769   -0.0000 N   0  0  0  0  0  0  0  0  0  0  0  0
    7.6988    0.1071   -0.0000 C   0  0  0  0  0  0  0  0  0  0  0  0
    6.4018    2.3560   -0.0000 C   0  0  0  0  0  0  0  0  0  0  0  0
   -7.8654    0.0714   -0.0000 C   0  0  0  0  0  0  0  0  0  0  0  0
   -6.5684    2.3203   -0.0000 C   0  0  0  0  0  0  0  0  0  0  0  0
    7.6869    1.6183   -0.0000 C   0  0  0  0  0  0  0  0  0  0  0  0
   -7.8773    1.5826   -0.0000 C   0  0  0  0  0  0  0  0  0  0  0  0
   -9.1862    2.3441   -0.0000 C   0  0  0  0  0  0  0  0  0  0  0  0
   -8.4603    3.6531   -0.0000 C   0  0  0  0  0  0  0  0  0  0  0  0
   -9.9596    1.0709   -0.0000 C   0  0  0  0  0  0  0  0  0  0  0  0
  -10.5070    3.1057   -0.0000 C   0  0  0  0  0  0  0  0  0  0  0  0
  1  2  1  0  0  0  0
  1  3  1  0  0  0  0
  2  4  2  0  0  0  0
  2  5  1  0  0  0  0
  3  6  1  0  0  0  0
  4  7  1  0  0  0  0
  5  8  2  0  0  0  0
  6  9  2  0  0  0  0
  6 10  1  0  0  0  0
  7 11  1  0  0  0  0
  7 12  2  0  0  0  0
  8 13  1  0  0  0  0
 10 14  1  0  0  0  0
 12 15  1  0  0  0  0
 13 16  1  0  0  0  0
 13 17  1  0  0  0  0
 14 18  2  0  0  0  0
 14 19  1  0  0  0  0
 15 20  3  0  0  0  0
 16 21  1  0  0  0  0
 17 22  1  0  0  0  0
 18 23  1  0  0  0  0
 19 24  2  0  0  0  0
 21 25  1  0  0  0  0
 23 26  2  0  0  0  0
 26 27  1  0  0  0  0
 27 28  1  0  0  0  0
 27 29  1  0  0  0  0
 27 30  1  0  0  0  0
  8 12  1  0  0  0  0
 22 25  1  0  0  0  0
 24 26  1  0  0  0  0
M  END
>  <MolRegNo>
348815

>  <m>
=

>  <Value>
350000

>  <Unit>
nM

>  <Type>
IC50

>  <Ligand Efficiency>


>  <Binding Efficiency>


>  <Surface Efficiency>


>  <Assay Index>
262926

>  <Assay Category>


>  <Assay Organism>
SARS coronavirus

>  <Target ID>
20012

>  <Target Name>
SARS coronavirus 3C-like proteinase

>  <Target Organism>
SARS coronavirus

>  <Target Description>
Target is a single protein chain

>  <Sequence Accession>
P0C6U8

>  <Reference>
J. Med. Chem. 49 (12), 3485-3495 (2006)

>  <Pubmed ID>
16759091

>  <DOI>
10.1021/jm050852f

>  <InChI-Key>
OLHLKONSFGSLGT-UHFFFAOYSA-N

>  <Molecular Formula>
C23H28N4O2S

>  <Monoisotopic Mass>
424.193296

>  <Druglikeness>
-10.624

$$$$
Compound 391
Actelion Java MolfileCreator 1.0

 86 86  0  0  0  0  0  0  0  0999 V2000
    0.0000   -0.0000   -0.0000 O   0  0  0  0  0  0  0  0  0  0  0  0
    1.2671    0.7567   -0.0000 C   0  0  0  0  0  0  0  0  0  0  0  0
    1.2495    2.2702   -0.0000 N   0  0  0  0  0  0  0  0  0  0  0  0
    2.5342    0.0352   -0.0000 C   0  0  0  0  0  0  0  0  0  0  0  0
   -0.0528    3.0269   -0.0000 C   0  0  0  0  0  0  0  0  0  0  0  0
    2.5166    3.0269   -0.0000 C   0  0  0  0  0  0  0  0  0  0  0  0
    2.5166   -1.4431   -0.0000 N   0  0  0  0  0  0  0  0  0  0  0  0
    3.8012    0.7919   -0.0000 C   0  0  0  0  0  0  0  0  0  0  0  0
   -0.0704    4.5404   -0.0000 C   0  0  0  0  0  0  0  0  0  0  0  0
   -1.3727    2.3054   -0.0000 C   0  0  0  0  0  0  0  0  0  0  0  0
    3.7836   -2.1646   -0.0000 C   0  0  0  0  0  0  0  0  0  0  0  0
    1.2143   -2.1646   -0.0000 C   0  0  0  0  0  0  0  0  0  0  0  0
    3.7836    2.3054   -0.0000 C   0  0  0  0  0  0  0  0  0  0  0  0
    5.2619    0.8095   -0.0000 C   0  0  0  0  0  0  0  0  0  0  0  0
    1.1967    5.2971   -0.0000 O   0  0  0  0  0  0  0  0  0  0  0  0
   -1.3903    5.2971   -0.0000 N   0  0  0  0  0  0  0  0  0  0  0  0
   -1.3903    0.8271   -0.0000 O   0  0  0  0  0  0  0  0  0  0  0  0
   -2.6749    3.0621   -0.0000 C   0  0  0  0  0  0  0  0  0  0  0  0
    3.7660   -3.6429   -0.0000 O   0  0  0  0  0  0  0  0  0  0  0  0
    5.0507   -1.4079   -0.0000 C   0  0  0  0  0  0  0  0  0  0  0  0
   -1.4079    6.8106   -0.0000 C   0  0  0  0  0  0  0  0  0  0  0  0
   -3.9772    2.3406   -0.0000 C   0  0  0  0  0  0  0  0  0  0  0  0
   -2.6925    4.5756   -0.0000 C   0  0  0  0  0  0  0  0  0  0  0  0
    6.3178   -2.1294   -0.0000 N   0  0  0  0  0  0  0  0  0  0  0  0
    5.0331    0.1056   -0.0000 C   0  0  0  0  0  0  0  0  0  0  0  0
   -0.1232    9.0631   -0.0000 C   0  0  0  0  0  0  0  0  0  0  0  0
   -2.9213    6.8458   -0.0000 C   0  0  0  0  0  0  0  0  0  0  0  0
   -5.2619    3.0973   -0.0000 C   0  0  0  0  0  0  0  0  0  0  0  0
    7.5849   -1.3727   -0.0000 C   0  0  0  0  0  0  0  0  0  0  0  0
    6.3002   -3.6077   -0.0000 C   0  0  0  0  0  0  0  0  0  0  0  0
    5.7547    1.4255   -0.0000 C   0  0  0  0  0  0  0  0  0  0  0  0
   -1.1967   10.1366   -0.0000 O   0  0  0  0  0  0  0  0  0  0  0  0
    1.1439    9.8199   -0.0000 N   0  0  0  0  0  0  0  0  0  0  0  0
   -3.6605    8.1656   -0.0000 C   0  0  0  0  0  0  0  0  0  0  0  0
   -6.5642    2.3758   -0.0000 C   0  0  0  0  0  0  0  0  0  0  0  0
    7.5673    0.1408   -0.0000 O   0  0  0  0  0  0  0  0  0  0  0  0
    8.8696   -2.0942   -0.0000 C   0  0  0  0  0  0  0  0  0  0  0  0
    4.9803    2.7277   -0.0000 C   0  0  0  0  0  0  0  0  0  0  0  0
    7.2329    1.4607   -0.0000 C   0  0  0  0  0  0  0  0  0  0  0  0
    2.4110    9.0983   -0.0000 C   0  0  0  0  0  0  0  0  0  0  0  0
    1.1263   11.3333   -0.0000 C   0  0  0  0  0  0  0  0  0  0  0  0
   -7.8665    3.1501   -0.0000 C   0  0  0  0  0  0  0  0  0  0  0  0
   10.1366   -1.3375   -0.0000 N   0  0  0  0  0  0  0  0  0  0  0  0
    8.8520   -3.5725   -0.0000 C   0  0  0  0  0  0  0  0  0  0  0  0
    3.6781    9.8551   -0.0000 C   0  0  0  0  0  0  0  0  0  0  0  0
    2.3934    7.6201   -0.0000 C   0  0  0  0  0  0  0  0  0  0  0  0
   11.4037   -2.0590   -0.0000 C   0  0  0  0  0  0  0  0  0  0  0  0
   10.1190    0.1760   -0.0000 C   0  0  0  0  0  0  0  0  0  0  0  0
    7.5321   -4.2940   -0.0000 C   0  0  0  0  0  0  0  0  0  0  0  0
    3.6605   11.3685   -0.0000 O   0  0  0  0  0  0  0  0  0  0  0  0
    4.9451    9.1335   -0.0000 N   0  0  0  0  0  0  0  0  0  0  0  0
   11.3861   -3.5373   -0.0000 O   0  0  0  0  0  0  0  0  0  0  0  0
   12.6708   -1.3023   -0.0000 C   0  0  0  0  0  0  0  0  0  0  0  0
    6.0186   -4.2588   -0.0000 C   0  0  0  0  0  0  0  0  0  0  0  0
    7.4969   -5.7547   -0.0000 C   0  0  0  0  0  0  0  0  0  0  0  0
    6.2122    9.8903   -0.0000 C   0  0  0  0  0  0  0  0  0  0  0  0
    4.9275    7.6553   -0.0000 C   0  0  0  0  0  0  0  0  0  0  0  0
   12.6532    0.2112   -0.0000 N   0  0  0  0  0  0  0  0  0  0  0  0
   13.9379   -2.0238   -0.0000 C   0  0  0  0  0  0  0  0  0  0  0  0
    7.4793    9.1687   -0.0000 C   0  0  0  0  0  0  0  0  0  0  0  0
    6.1946   11.4037   -0.0000 C   0  0  0  0  0  0  0  0  0  0  0  0
    6.1946    6.9337   -0.0000 C   0  0  0  0  0  0  0  0  0  0  0  0
   13.9203    0.9679   -0.0000 C   0  0  0  0  0  0  0  0  0  0  0  0
    7.4617    7.6905   -0.0000 O   0  0  0  0  0  0  0  0  0  0  0  0
    8.7640    9.9255   -0.0000 N   0  0  0  0  0  0  0  0  0  0  0  0
    7.4617   12.1605   -0.0000 C   0  0  0  0  0  0  0  0  0  0  0  0
    4.8923   12.1605   -0.0000 C   0  0  0  0  0  0  0  0  0  0  0  0
   15.1874    0.2464   -0.0000 O   0  0  0  0  0  0  0  0  0  0  0  0
   13.9027    2.4814   -0.0000 C   0  0  0  0  0  0  0  0  0  0  0  0
   10.0311    9.2039   -0.0000 C   0  0  0  0  0  0  0  0  0  0  0  0
   12.6004    3.2381   -0.0000 N   0  0  0  0  0  0  0  0  0  0  0  0
   15.1698    3.2381   -0.0000 C   0  0  0  0  0  0  0  0  0  0  0  0
   10.0135    7.7257   -0.0000 C   0  0  0  0  0  0  0  0  0  0  0  0
   11.2981    9.9607   -0.0000 C   0  0  0  0  0  0  0  0  0  0  0  0
   12.5828    4.7516   -0.0000 C   0  0  0  0  0  0  0  0  0  0  0  0
    8.7112    7.0041   -0.0000 O   0  0  0  0  0  0  0  0  0  0  0  0
   11.2805    7.0041   -0.0000 N   0  0  0  0  0  0  0  0  0  0  0  0
   12.5652    9.2391   -0.0000 C   0  0  0  0  0  0  0  0  0  0  0  0
   11.2805   11.4741   -0.0000 C   0  0  0  0  0  0  0  0  0  0  0  0
   13.8499    5.5083   -0.0000 O   0  0  0  0  0  0  0  0  0  0  0  0
   11.2805    5.5083   -0.0000 C   0  0  0  0  0  0  0  0  0  0  0  0
   12.5476    7.7609   -0.0000 C   0  0  0  0  0  0  0  0  0  0  0  0
    9.9783    4.7867   -0.0000 C   0  0  0  0  0  0  0  0  0  0  0  0
    9.9607    3.3085   -0.0000 C   0  0  0  0  0  0  0  0  0  0  0  0
    8.6584    2.5870   -0.0000 C   0  0  0  0  0  0  0  0  0  0  0  0
   11.2277    2.5870   -0.0000 C   0  0  0  0  0  0  0  0  0  0  0  0
  1  2  2  0  0  0  0
  2  3  1  0  0  0  0
  2  4  1  0  0  0  0
  5  3  1  1  0  0  0
  3  6  1  0  0  0  0
  4  7  1  0  0  0  0
  4  8  1  6  0  0  0
  5  9  1  0  0  0  0
  5 10  1  0  0  0  0
  7 11  1  0  0  0  0
  7 12  1  0  0  0  0
  8 13  1  0  0  0  0
  8 14  1  0  0  0  0
  9 15  2  0  0  0  0
  9 16  1  0  0  0  0
 10 17  1  6  0  0  0
 10 18  1  0  0  0  0
 11 19  2  0  0  0  0
 11 20  1  0  0  0  0
 16 21  1  0  0  0  0
 18 22  1  0  0  0  0
 18 23  1  1  0  0  0
 20 24  1  0  0  0  0
 20 25  1  6  0  0  0
 21 26  1  0  0  0  0
 21 27  1  1  0  0  0
 22 28  1  0  0  0  0
 24 29  1  0  0  0  0
 24 30  1  0  0  0  0
 25 31  1  0  0  0  0
 26 32  2  0  0  0  0
 26 33  1  0  0  0  0
 27 34  1  0  0  0  0
 28 35  2  0  0  0  0
 29 36  2  0  0  0  0
 29 37  1  0  0  0  0
 31 38  1  0  0  0  0
 31 39  1  0  0  0  0
 33 40  1  0  0  0  0
 33 41  1  0  0  0  0
 35 42  1  0  0  0  0
 37 43  1  0  0  0  0
 37 44  1  1  0  0  0
 40 45  1  0  0  0  0
 40 46  1  1  0  0  0
 43 47  1  0  0  0  0
 43 48  1  0  0  0  0
 44 49  1  0  0  0  0
 45 50  2  0  0  0  0
 45 51  1  0  0  0  0
 47 52  2  0  0  0  0
 47 53  1  0  0  0  0
 49 54  1  0  0  0  0
 49 55  1  0  0  0  0
 51 56  1  0  0  0  0
 51 57  1  0  0  0  0
 53 58  1  0  0  0  0
 53 59  1  6  0  0  0
 56 60  1  0  0  0  0
 56 61  1  1  0  0  0
 57 62  1  0  0  0  0
 58 63  1  0  0  0  0
 60 64  2  0  0  0  0
 60 65  1  0  0  0  0
 61 66  1  0  0  0  0
 61 67  1  0  0  0  0
 63 68  2  0  0  0  0
 63 69  1  0  0  0  0
 65 70  1  0  0  0  0
 69 71  1  0  0  0  0
 69 72  1  1  0  0  0
 70 73  1  0  0  0  0
 70 74  1  1  0  0  0
 71 75  1  0  0  0  0
 73 76  2  0  0  0  0
 73 77  1  0  0  0  0
 74 78  1  0  0  0  0
 74 79  1  0  0  0  0
 75 80  2  0  0  0  0
 75 81  1  0  0  0  0
 77 82  1  0  0  0  0
 81 83  1  6  0  0  0
 83 84  1  0  0  0  0
 84 85  1  0  0  0  0
 84 86  1  0  0  0  0
 77 81  1  0  0  0  0
M  END
>  <MolRegNo>
1064694

>  <m>
=

>  <Value>
7700

>  <Unit>
nM

>  <Type>
IC50

>  <Ligand Efficiency>


>  <Binding Efficiency>


>  <Surface Efficiency>


>  <Assay Index>
574748

>  <Assay Category>


>  <Assay Organism>
SARS coronavirus

>  <Target ID>
100499

>  <Target Name>
SARS coronavirus

>  <Target Organism>
SARS coronavirus

>  <Target Description>
Target is a complete organism

>  <Sequence Accession>


>  <Reference>
Antimicrob. Agents Chemother. 52 (4), 1302-1317 (2008)

>  <Pubmed ID>
18212100

>  <DOI>
10.1128/aac.01324-07

>  <InChI-Key>
OLROWHGDTNFZBH-HWKAVBIVSA-N

>  <Molecular Formula>
C63H113N11O12

>  <Monoisotopic Mass>
1215.85702

>  <Druglikeness>
7.6908

$$$$
Compound 392
Actelion Java MolfileCreator 1.0

 42 46  0  0  1  0  0  0  0  0999 V2000
    0.0000   -0.0000   -0.0000 O   0  0  0  0  0  0  0  0  0  0  0  0
   -0.0119   -1.4968   -0.0000 C   0  0  0  0  0  0  0  0  0  0  0  0
    1.2830   -2.2333   -0.0000 O   0  0  0  0  0  0  0  0  0  0  0  0
   -1.3305   -2.2333   -0.0000 C   0  0  0  0  0  0  0  0  0  0  0  0
    2.5778   -1.4730   -0.0000 C   0  0  0  0  0  0  0  0  0  0  0  0
   -2.6491   -1.4612   -0.0000 C   0  0  0  0  0  0  0  0  0  0  0  0
   -1.3424   -3.7182   -0.0000 C   0  0  0  0  0  0  0  0  0  0  0  0
    2.5659    0.0475   -0.0000 C   0  0  0  0  0  0  0  0  0  0  0  0
    3.8727   -2.2096   -0.0000 C   0  0  0  0  0  0  0  0  0  0  0  0
   -3.9677   -2.1977   -0.0000 C   0  0  0  0  0  0  0  0  0  0  0  0
   -2.6491   -4.4548   -0.0000 C   0  0  0  0  0  0  0  0  0  0  0  0
    1.2473    0.8078   -0.0000 O   0  0  0  0  0  0  0  0  0  0  0  0
    3.8489    0.8078   -0.0000 C   0  0  0  0  0  0  0  0  0  0  0  0
    5.1556   -1.4374   -0.0000 C   0  0  0  0  0  0  0  0  0  0  0  0
   -3.9796   -3.6945   -0.0000 C   0  0  0  0  0  0  0  0  0  0  0  0
    1.2355    2.3284   -0.0000 C   0  0  0  0  0  0  0  0  0  0  0  0
    5.1438    0.0713   -0.0000 C   0  0  0  0  0  0  0  0  0  0  0  0
    6.4386   -2.1739   -0.0000 C   0  0  0  0  0  0  0  0  0  0  0  0
    6.4386    0.8434   -0.0000 C   0  0  0  0  0  0  0  0  0  0  0  0
    6.4149   -3.6588   -0.0000 C   0  0  0  0  0  0  0  0  0  0  0  0
    7.7335   -1.4136   -0.0000 C   0  0  0  0  0  0  0  0  0  0  0  0
    7.7335    0.0950   -0.0000 C   0  0  0  0  0  0  0  0  0  0  0  0
    7.6978   -4.3954   -0.0000 C   0  0  0  0  0  0  0  0  0  0  0  0
    5.0962   -4.3954   -0.0000 C   0  0  0  0  0  0  0  0  0  0  0  0
    9.0164   -2.1620   -0.0000 C   0  0  0  0  0  0  0  0  0  0  0  0
    9.0283    0.8553   -0.0000 C   0  0  0  0  0  0  0  0  0  0  0  0
    7.6859   -5.8803   -0.0000 C   0  0  0  0  0  0  0  0  0  0  0  0
    5.0844   -5.8922   -0.0000 C   0  0  0  0  0  0  0  0  0  0  0  0
   10.3113   -1.4018   -0.0000 O   0  0  0  0  0  0  0  0  0  0  0  0
   10.3232    0.1069   -0.0000 O   0  0  0  0  0  0  0  0  0  0  0  0
    8.9808   -6.6168   -0.0000 O   0  0  0  0  0  0  0  0  0  0  0  0
    6.3673   -6.6287   -0.0000 C   0  0  0  0  0  0  0  0  0  0  0  0
    8.9689   -8.1136   -0.0000 C   0  0  0  0  0  0  0  0  0  0  0  0
    6.3555   -8.1255   -0.0000 O   0  0  0  0  0  0  0  0  0  0  0  0
    5.0369   -8.8620   -0.0000 C   0  0  0  0  0  0  0  0  0  0  0  0
    3.7182   -8.1017   -0.0000 O   0  0  0  0  0  0  0  0  0  0  0  0
    5.0250  -10.3588   -0.0000 C   0  0  0  0  0  0  0  0  0  0  0  0
    3.7064  -11.0834   -0.0000 C   0  0  0  0  0  0  0  0  0  0  0  0
    6.3079  -11.0834   -0.0000 C   0  0  0  0  0  0  0  0  0  0  0  0
    3.6945  -12.5802   -0.0000 C   0  0  0  0  0  0  0  0  0  0  0  0
    6.2961  -12.5684   -0.0000 C   0  0  0  0  0  0  0  0  0  0  0  0
    4.9893  -13.3286   -0.0000 C   0  0  0  0  0  0  0  0  0  0  0  0
  1  2  2  0  0  0  0
  2  3  1  0  0  0  0
  2  4  1  0  0  0  0
  3  5  1  0  0  0  0
  4  6  2  0  0  0  0
  4  7  1  0  0  0  0
  5  8  2  0  0  0  0
  5  9  1  0  0  0  0
  6 10  1  0  0  0  0
  7 11  2  0  0  0  0
  8 12  1  0  0  0  0
  8 13  1  0  0  0  0
  9 14  2  0  0  0  0
 10 15  2  0  0  0  0
 12 16  1  0  0  0  0
 13 17  2  0  0  0  0
 14 18  1  0  0  0  0
 17 19  1  0  0  0  0
 18 20  1  0  0  0  0
 18 21  1  0  0  0  0
 19 22  1  0  0  0  0
 20 23  2  0  0  0  0
 20 24  1  0  0  0  0
 21 25  1  6  0  0  0
 22 26  1  1  0  0  0
 23 27  1  0  0  0  0
 24 28  2  0  0  0  0
 25 29  1  0  0  0  0
 26 30  1  0  0  0  0
 27 31  1  0  0  0  0
 27 32  2  0  0  0  0
 31 33  1  0  0  0  0
 32 34  1  0  0  0  0
 34 35  1  0  0  0  0
 35 36  2  0  0  0  0
 35 37  1  0  0  0  0
 37 38  2  0  0  0  0
 37 39  1  0  0  0  0
 38 40  1  0  0  0  0
 39 41  2  0  0  0  0
 40 42  2  0  0  0  0
 11 15  1  0  0  0  0
 14 17  1  0  0  0  0
 21 22  1  0  0  0  0
 28 32  1  0  0  0  0
 41 42  1  0  0  0  0
M  END
>  <MolRegNo>
387497

>  <m>


>  <Value>
0

>  <Unit>


>  <Type>
EC50

>  <Ligand Efficiency>


>  <Binding Efficiency>


>  <Surface Efficiency>


>  <Assay Index>
294026

>  <Assay Category>


>  <Assay Organism>
SARS coronavirus

>  <Target ID>
100499

>  <Target Name>
SARS coronavirus

>  <Target Organism>
SARS coronavirus

>  <Target Description>
Target is a complete organism

>  <Sequence Accession>


>  <Reference>
J. Med. Chem. 50 (17), 4087-4095 (2007)

>  <Pubmed ID>
17663539

>  <DOI>
10.1021/jm070295s

>  <InChI-Key>
OMVSZZGLJJZENQ-MQHRAKSTSA-N

>  <Molecular Formula>
C34H32O8

>  <Monoisotopic Mass>
568.209720

>  <Druglikeness>
-3.5402

$$$$
Compound 393
Actelion Java MolfileCreator 1.0

 42 46  0  0  1  0  0  0  0  0999 V2000
    0.0000   -0.0000   -0.0000 O   0  0  0  0  0  0  0  0  0  0  0  0
   -0.0119   -1.4968   -0.0000 C   0  0  0  0  0  0  0  0  0  0  0  0
    1.2830   -2.2333   -0.0000 O   0  0  0  0  0  0  0  0  0  0  0  0
   -1.3305   -2.2333   -0.0000 C   0  0  0  0  0  0  0  0  0  0  0  0
    2.5778   -1.4730   -0.0000 C   0  0  0  0  0  0  0  0  0  0  0  0
   -2.6491   -1.4612   -0.0000 C   0  0  0  0  0  0  0  0  0  0  0  0
   -1.3424   -3.7182   -0.0000 C   0  0  0  0  0  0  0  0  0  0  0  0
    2.5659    0.0475   -0.0000 C   0  0  0  0  0  0  0  0  0  0  0  0
    3.8727   -2.2096   -0.0000 C   0  0  0  0  0  0  0  0  0  0  0  0
   -3.9677   -2.1977   -0.0000 C   0  0  0  0  0  0  0  0  0  0  0  0
   -2.6491   -4.4548   -0.0000 C   0  0  0  0  0  0  0  0  0  0  0  0
    1.2473    0.8078   -0.0000 O   0  0  0  0  0  0  0  0  0  0  0  0
    3.8489    0.8078   -0.0000 C   0  0  0  0  0  0  0  0  0  0  0  0
    5.1556   -1.4374   -0.0000 C   0  0  0  0  0  0  0  0  0  0  0  0
   -3.9796   -3.6945   -0.0000 C   0  0  0  0  0  0  0  0  0  0  0  0
    1.2355    2.3284   -0.0000 C   0  0  0  0  0  0  0  0  0  0  0  0
    5.1438    0.0713   -0.0000 C   0  0  0  0  0  0  0  0  0  0  0  0
    6.4386   -2.1739   -0.0000 C   0  0  0  0  0  0  0  0  0  0  0  0
    6.4386    0.8434   -0.0000 C   0  0  0  0  0  0  0  0  0  0  0  0
    6.4149   -3.6588   -0.0000 C   0  0  0  0  0  0  0  0  0  0  0  0
    7.7335   -1.4136   -0.0000 C   0  0  0  0  0  0  0  0  0  0  0  0
    7.7335    0.0950   -0.0000 C   0  0  0  0  0  0  0  0  0  0  0  0
    7.6978   -4.3954   -0.0000 C   0  0  0  0  0  0  0  0  0  0  0  0
    5.0962   -4.3954   -0.0000 C   0  0  0  0  0  0  0  0  0  0  0  0
    9.0164   -2.1620   -0.0000 C   0  0  0  0  0  0  0  0  0  0  0  0
    9.0283    0.8553   -0.0000 C   0  0  0  0  0  0  0  0  0  0  0  0
    7.6859   -5.8803   -0.0000 C   0  0  0  0  0  0  0  0  0  0  0  0
    5.0844   -5.8922   -0.0000 C   0  0  0  0  0  0  0  0  0  0  0  0
   10.3113   -1.4018   -0.0000 O   0  0  0  0  0  0  0  0  0  0  0  0
   10.3232    0.1069   -0.0000 O   0  0  0  0  0  0  0  0  0  0  0  0
    8.9808   -6.6168   -0.0000 O   0  0  0  0  0  0  0  0  0  0  0  0
    6.3673   -6.6287   -0.0000 C   0  0  0  0  0  0  0  0  0  0  0  0
    8.9689   -8.1136   -0.0000 C   0  0  0  0  0  0  0  0  0  0  0  0
    6.3555   -8.1255   -0.0000 O   0  0  0  0  0  0  0  0  0  0  0  0
    5.0369   -8.8620   -0.0000 C   0  0  0  0  0  0  0  0  0  0  0  0
    3.7182   -8.1017   -0.0000 O   0  0  0  0  0  0  0  0  0  0  0  0
    5.0250  -10.3588   -0.0000 C   0  0  0  0  0  0  0  0  0  0  0  0
    3.7064  -11.0834   -0.0000 C   0  0  0  0  0  0  0  0  0  0  0  0
    6.3079  -11.0834   -0.0000 C   0  0  0  0  0  0  0  0  0  0  0  0
    3.6945  -12.5802   -0.0000 C   0  0  0  0  0  0  0  0  0  0  0  0
    6.2961  -12.5684   -0.0000 C   0  0  0  0  0  0  0  0  0  0  0  0
    4.9893  -13.3286   -0.0000 C   0  0  0  0  0  0  0  0  0  0  0  0
  1  2  2  0  0  0  0
  2  3  1  0  0  0  0
  2  4  1  0  0  0  0
  3  5  1  0  0  0  0
  4  6  2  0  0  0  0
  4  7  1  0  0  0  0
  5  8  2  0  0  0  0
  5  9  1  0  0  0  0
  6 10  1  0  0  0  0
  7 11  2  0  0  0  0
  8 12  1  0  0  0  0
  8 13  1  0  0  0  0
  9 14  2  0  0  0  0
 10 15  2  0  0  0  0
 12 16  1  0  0  0  0
 13 17  2  0  0  0  0
 14 18  1  0  0  0  0
 17 19  1  0  0  0  0
 18 20  1  0  0  0  0
 18 21  1  0  0  0  0
 19 22  1  0  0  0  0
 20 23  2  0  0  0  0
 20 24  1  0  0  0  0
 21 25  1  6  0  0  0
 22 26  1  1  0  0  0
 23 27  1  0  0  0  0
 24 28  2  0  0  0  0
 25 29  1  0  0  0  0
 26 30  1  0  0  0  0
 27 31  1  0  0  0  0
 27 32  2  0  0  0  0
 31 33  1  0  0  0  0
 32 34  1  0  0  0  0
 34 35  1  0  0  0  0
 35 36  2  0  0  0  0
 35 37  1  0  0  0  0
 37 38  2  0  0  0  0
 37 39  1  0  0  0  0
 38 40  1  0  0  0  0
 39 41  2  0  0  0  0
 40 42  2  0  0  0  0
 11 15  1  0  0  0  0
 14 17  1  0  0  0  0
 21 22  1  0  0  0  0
 28 32  1  0  0  0  0
 41 42  1  0  0  0  0
M  END
>  <MolRegNo>
387497

>  <m>
<

>  <Value>
25

>  <Unit>
%

>  <Type>
Inhibition

>  <Ligand Efficiency>


>  <Binding Efficiency>


>  <Surface Efficiency>


>  <Assay Index>
294022

>  <Assay Category>


>  <Assay Organism>
SARS coronavirus

>  <Target ID>
100499

>  <Target Name>
SARS coronavirus

>  <Target Organism>
SARS coronavirus

>  <Target Description>
Target is a complete organism

>  <Sequence Accession>


>  <Reference>
J. Med. Chem. 50 (17), 4087-4095 (2007)

>  <Pubmed ID>
17663539

>  <DOI>
10.1021/jm070295s

>  <InChI-Key>
OMVSZZGLJJZENQ-MQHRAKSTSA-N

>  <Molecular Formula>
C34H32O8

>  <Monoisotopic Mass>
568.209720

>  <Druglikeness>
-3.5402

$$$$
Compound 394
Actelion Java MolfileCreator 1.0

 42 46  0  0  1  0  0  0  0  0999 V2000
    0.0000   -0.0000   -0.0000 O   0  0  0  0  0  0  0  0  0  0  0  0
   -0.0119   -1.4968   -0.0000 C   0  0  0  0  0  0  0  0  0  0  0  0
    1.2830   -2.2333   -0.0000 O   0  0  0  0  0  0  0  0  0  0  0  0
   -1.3305   -2.2333   -0.0000 C   0  0  0  0  0  0  0  0  0  0  0  0
    2.5778   -1.4730   -0.0000 C   0  0  0  0  0  0  0  0  0  0  0  0
   -2.6491   -1.4612   -0.0000 C   0  0  0  0  0  0  0  0  0  0  0  0
   -1.3424   -3.7182   -0.0000 C   0  0  0  0  0  0  0  0  0  0  0  0
    2.5659    0.0475   -0.0000 C   0  0  0  0  0  0  0  0  0  0  0  0
    3.8727   -2.2096   -0.0000 C   0  0  0  0  0  0  0  0  0  0  0  0
   -3.9677   -2.1977   -0.0000 C   0  0  0  0  0  0  0  0  0  0  0  0
   -2.6491   -4.4548   -0.0000 C   0  0  0  0  0  0  0  0  0  0  0  0
    1.2473    0.8078   -0.0000 O   0  0  0  0  0  0  0  0  0  0  0  0
    3.8489    0.8078   -0.0000 C   0  0  0  0  0  0  0  0  0  0  0  0
    5.1556   -1.4374   -0.0000 C   0  0  0  0  0  0  0  0  0  0  0  0
   -3.9796   -3.6945   -0.0000 C   0  0  0  0  0  0  0  0  0  0  0  0
    1.2355    2.3284   -0.0000 C   0  0  0  0  0  0  0  0  0  0  0  0
    5.1438    0.0713   -0.0000 C   0  0  0  0  0  0  0  0  0  0  0  0
    6.4386   -2.1739   -0.0000 C   0  0  0  0  0  0  0  0  0  0  0  0
    6.4386    0.8434   -0.0000 C   0  0  0  0  0  0  0  0  0  0  0  0
    6.4149   -3.6588   -0.0000 C   0  0  0  0  0  0  0  0  0  0  0  0
    7.7335   -1.4136   -0.0000 C   0  0  0  0  0  0  0  0  0  0  0  0
    7.7335    0.0950   -0.0000 C   0  0  0  0  0  0  0  0  0  0  0  0
    7.6978   -4.3954   -0.0000 C   0  0  0  0  0  0  0  0  0  0  0  0
    5.0962   -4.3954   -0.0000 C   0  0  0  0  0  0  0  0  0  0  0  0
    9.0164   -2.1620   -0.0000 C   0  0  0  0  0  0  0  0  0  0  0  0
    9.0283    0.8553   -0.0000 C   0  0  0  0  0  0  0  0  0  0  0  0
    7.6859   -5.8803   -0.0000 C   0  0  0  0  0  0  0  0  0  0  0  0
    5.0844   -5.8922   -0.0000 C   0  0  0  0  0  0  0  0  0  0  0  0
   10.3113   -1.4018   -0.0000 O   0  0  0  0  0  0  0  0  0  0  0  0
   10.3232    0.1069   -0.0000 O   0  0  0  0  0  0  0  0  0  0  0  0
    8.9808   -6.6168   -0.0000 O   0  0  0  0  0  0  0  0  0  0  0  0
    6.3673   -6.6287   -0.0000 C   0  0  0  0  0  0  0  0  0  0  0  0
    8.9689   -8.1136   -0.0000 C   0  0  0  0  0  0  0  0  0  0  0  0
    6.3555   -8.1255   -0.0000 O   0  0  0  0  0  0  0  0  0  0  0  0
    5.0369   -8.8620   -0.0000 C   0  0  0  0  0  0  0  0  0  0  0  0
    3.7182   -8.1017   -0.0000 O   0  0  0  0  0  0  0  0  0  0  0  0
    5.0250  -10.3588   -0.0000 C   0  0  0  0  0  0  0  0  0  0  0  0
    3.7064  -11.0834   -0.0000 C   0  0  0  0  0  0  0  0  0  0  0  0
    6.3079  -11.0834   -0.0000 C   0  0  0  0  0  0  0  0  0  0  0  0
    3.6945  -12.5802   -0.0000 C   0  0  0  0  0  0  0  0  0  0  0  0
    6.2961  -12.5684   -0.0000 C   0  0  0  0  0  0  0  0  0  0  0  0
    4.9893  -13.3286   -0.0000 C   0  0  0  0  0  0  0  0  0  0  0  0
  1  2  2  0  0  0  0
  2  3  1  0  0  0  0
  2  4  1  0  0  0  0
  3  5  1  0  0  0  0
  4  6  2  0  0  0  0
  4  7  1  0  0  0  0
  5  8  2  0  0  0  0
  5  9  1  0  0  0  0
  6 10  1  0  0  0  0
  7 11  2  0  0  0  0
  8 12  1  0  0  0  0
  8 13  1  0  0  0  0
  9 14  2  0  0  0  0
 10 15  2  0  0  0  0
 12 16  1  0  0  0  0
 13 17  2  0  0  0  0
 14 18  1  0  0  0  0
 17 19  1  0  0  0  0
 18 20  1  0  0  0  0
 18 21  1  0  0  0  0
 19 22  1  0  0  0  0
 20 23  2  0  0  0  0
 20 24  1  0  0  0  0
 21 25  1  6  0  0  0
 22 26  1  1  0  0  0
 23 27  1  0  0  0  0
 24 28  2  0  0  0  0
 25 29  1  0  0  0  0
 26 30  1  0  0  0  0
 27 31  1  0  0  0  0
 27 32  2  0  0  0  0
 31 33  1  0  0  0  0
 32 34  1  0  0  0  0
 34 35  1  0  0  0  0
 35 36  2  0  0  0  0
 35 37  1  0  0  0  0
 37 38  2  0  0  0  0
 37 39  1  0  0  0  0
 38 40  1  0  0  0  0
 39 41  2  0  0  0  0
 40 42  2  0  0  0  0
 11 15  1  0  0  0  0
 14 17  1  0  0  0  0
 21 22  1  0  0  0  0
 28 32  1  0  0  0  0
 41 42  1  0  0  0  0
M  END
>  <MolRegNo>
387497

>  <m>
<

>  <Value>
25

>  <Unit>
%

>  <Type>
Inhibition

>  <Ligand Efficiency>


>  <Binding Efficiency>


>  <Surface Efficiency>


>  <Assay Index>
294023

>  <Assay Category>


>  <Assay Organism>
SARS coronavirus

>  <Target ID>
100499

>  <Target Name>
SARS coronavirus

>  <Target Organism>
SARS coronavirus

>  <Target Description>
Target is a complete organism

>  <Sequence Accession>


>  <Reference>
J. Med. Chem. 50 (17), 4087-4095 (2007)

>  <Pubmed ID>
17663539

>  <DOI>
10.1021/jm070295s

>  <InChI-Key>
OMVSZZGLJJZENQ-MQHRAKSTSA-N

>  <Molecular Formula>
C34H32O8

>  <Monoisotopic Mass>
568.209720

>  <Druglikeness>
-3.5402

$$$$
Compound 395
Actelion Java MolfileCreator 1.0

 42 46  0  0  1  0  0  0  0  0999 V2000
    0.0000   -0.0000   -0.0000 O   0  0  0  0  0  0  0  0  0  0  0  0
   -0.0119   -1.4968   -0.0000 C   0  0  0  0  0  0  0  0  0  0  0  0
    1.2830   -2.2333   -0.0000 O   0  0  0  0  0  0  0  0  0  0  0  0
   -1.3305   -2.2333   -0.0000 C   0  0  0  0  0  0  0  0  0  0  0  0
    2.5778   -1.4730   -0.0000 C   0  0  0  0  0  0  0  0  0  0  0  0
   -2.6491   -1.4612   -0.0000 C   0  0  0  0  0  0  0  0  0  0  0  0
   -1.3424   -3.7182   -0.0000 C   0  0  0  0  0  0  0  0  0  0  0  0
    2.5659    0.0475   -0.0000 C   0  0  0  0  0  0  0  0  0  0  0  0
    3.8727   -2.2096   -0.0000 C   0  0  0  0  0  0  0  0  0  0  0  0
   -3.9677   -2.1977   -0.0000 C   0  0  0  0  0  0  0  0  0  0  0  0
   -2.6491   -4.4548   -0.0000 C   0  0  0  0  0  0  0  0  0  0  0  0
    1.2473    0.8078   -0.0000 O   0  0  0  0  0  0  0  0  0  0  0  0
    3.8489    0.8078   -0.0000 C   0  0  0  0  0  0  0  0  0  0  0  0
    5.1556   -1.4374   -0.0000 C   0  0  0  0  0  0  0  0  0  0  0  0
   -3.9796   -3.6945   -0.0000 C   0  0  0  0  0  0  0  0  0  0  0  0
    1.2355    2.3284   -0.0000 C   0  0  0  0  0  0  0  0  0  0  0  0
    5.1438    0.0713   -0.0000 C   0  0  0  0  0  0  0  0  0  0  0  0
    6.4386   -2.1739   -0.0000 C   0  0  0  0  0  0  0  0  0  0  0  0
    6.4386    0.8434   -0.0000 C   0  0  0  0  0  0  0  0  0  0  0  0
    6.4149   -3.6588   -0.0000 C   0  0  0  0  0  0  0  0  0  0  0  0
    7.7335   -1.4136   -0.0000 C   0  0  0  0  0  0  0  0  0  0  0  0
    7.7335    0.0950   -0.0000 C   0  0  0  0  0  0  0  0  0  0  0  0
    7.6978   -4.3954   -0.0000 C   0  0  0  0  0  0  0  0  0  0  0  0
    5.0962   -4.3954   -0.0000 C   0  0  0  0  0  0  0  0  0  0  0  0
    9.0164   -2.1620   -0.0000 C   0  0  0  0  0  0  0  0  0  0  0  0
    9.0283    0.8553   -0.0000 C   0  0  0  0  0  0  0  0  0  0  0  0
    7.6859   -5.8803   -0.0000 C   0  0  0  0  0  0  0  0  0  0  0  0
    5.0844   -5.8922   -0.0000 C   0  0  0  0  0  0  0  0  0  0  0  0
   10.3113   -1.4018   -0.0000 O   0  0  0  0  0  0  0  0  0  0  0  0
   10.3232    0.1069   -0.0000 O   0  0  0  0  0  0  0  0  0  0  0  0
    8.9808   -6.6168   -0.0000 O   0  0  0  0  0  0  0  0  0  0  0  0
    6.3673   -6.6287   -0.0000 C   0  0  0  0  0  0  0  0  0  0  0  0
    8.9689   -8.1136   -0.0000 C   0  0  0  0  0  0  0  0  0  0  0  0
    6.3555   -8.1255   -0.0000 O   0  0  0  0  0  0  0  0  0  0  0  0
    5.0369   -8.8620   -0.0000 C   0  0  0  0  0  0  0  0  0  0  0  0
    3.7182   -8.1017   -0.0000 O   0  0  0  0  0  0  0  0  0  0  0  0
    5.0250  -10.3588   -0.0000 C   0  0  0  0  0  0  0  0  0  0  0  0
    3.7064  -11.0834   -0.0000 C   0  0  0  0  0  0  0  0  0  0  0  0
    6.3079  -11.0834   -0.0000 C   0  0  0  0  0  0  0  0  0  0  0  0
    3.6945  -12.5802   -0.0000 C   0  0  0  0  0  0  0  0  0  0  0  0
    6.2961  -12.5684   -0.0000 C   0  0  0  0  0  0  0  0  0  0  0  0
    4.9893  -13.3286   -0.0000 C   0  0  0  0  0  0  0  0  0  0  0  0
  1  2  2  0  0  0  0
  2  3  1  0  0  0  0
  2  4  1  0  0  0  0
  3  5  1  0  0  0  0
  4  6  2  0  0  0  0
  4  7  1  0  0  0  0
  5  8  2  0  0  0  0
  5  9  1  0  0  0  0
  6 10  1  0  0  0  0
  7 11  2  0  0  0  0
  8 12  1  0  0  0  0
  8 13  1  0  0  0  0
  9 14  2  0  0  0  0
 10 15  2  0  0  0  0
 12 16  1  0  0  0  0
 13 17  2  0  0  0  0
 14 18  1  0  0  0  0
 17 19  1  0  0  0  0
 18 20  1  0  0  0  0
 18 21  1  0  0  0  0
 19 22  1  0  0  0  0
 20 23  2  0  0  0  0
 20 24  1  0  0  0  0
 21 25  1  6  0  0  0
 22 26  1  1  0  0  0
 23 27  1  0  0  0  0
 24 28  2  0  0  0  0
 25 29  1  0  0  0  0
 26 30  1  0  0  0  0
 27 31  1  0  0  0  0
 27 32  2  0  0  0  0
 31 33  1  0  0  0  0
 32 34  1  0  0  0  0
 34 35  1  0  0  0  0
 35 36  2  0  0  0  0
 35 37  1  0  0  0  0
 37 38  2  0  0  0  0
 37 39  1  0  0  0  0
 38 40  1  0  0  0  0
 39 41  2  0  0  0  0
 40 42  2  0  0  0  0
 11 15  1  0  0  0  0
 14 17  1  0  0  0  0
 21 22  1  0  0  0  0
 28 32  1  0  0  0  0
 41 42  1  0  0  0  0
M  END
>  <MolRegNo>
387497

>  <m>


>  <Value>
0

>  <Unit>


>  <Type>
Inhibition

>  <Ligand Efficiency>


>  <Binding Efficiency>


>  <Surface Efficiency>


>  <Assay Index>
294025

>  <Assay Category>


>  <Assay Organism>
SARS coronavirus

>  <Target ID>
100499

>  <Target Name>
SARS coronavirus

>  <Target Organism>
SARS coronavirus

>  <Target Description>
Target is a complete organism

>  <Sequence Accession>


>  <Reference>
J. Med. Chem. 50 (17), 4087-4095 (2007)

>  <Pubmed ID>
17663539

>  <DOI>
10.1021/jm070295s

>  <InChI-Key>
OMVSZZGLJJZENQ-MQHRAKSTSA-N

>  <Molecular Formula>
C34H32O8

>  <Monoisotopic Mass>
568.209720

>  <Druglikeness>
-3.5402

$$$$
Compound 396
Actelion Java MolfileCreator 1.0

 42 46  0  0  1  0  0  0  0  0999 V2000
    0.0000   -0.0000   -0.0000 O   0  0  0  0  0  0  0  0  0  0  0  0
   -0.0119   -1.4968   -0.0000 C   0  0  0  0  0  0  0  0  0  0  0  0
    1.2830   -2.2333   -0.0000 O   0  0  0  0  0  0  0  0  0  0  0  0
   -1.3305   -2.2333   -0.0000 C   0  0  0  0  0  0  0  0  0  0  0  0
    2.5778   -1.4730   -0.0000 C   0  0  0  0  0  0  0  0  0  0  0  0
   -2.6491   -1.4612   -0.0000 C   0  0  0  0  0  0  0  0  0  0  0  0
   -1.3424   -3.7182   -0.0000 C   0  0  0  0  0  0  0  0  0  0  0  0
    2.5659    0.0475   -0.0000 C   0  0  0  0  0  0  0  0  0  0  0  0
    3.8727   -2.2096   -0.0000 C   0  0  0  0  0  0  0  0  0  0  0  0
   -3.9677   -2.1977   -0.0000 C   0  0  0  0  0  0  0  0  0  0  0  0
   -2.6491   -4.4548   -0.0000 C   0  0  0  0  0  0  0  0  0  0  0  0
    1.2473    0.8078   -0.0000 O   0  0  0  0  0  0  0  0  0  0  0  0
    3.8489    0.8078   -0.0000 C   0  0  0  0  0  0  0  0  0  0  0  0
    5.1556   -1.4374   -0.0000 C   0  0  0  0  0  0  0  0  0  0  0  0
   -3.9796   -3.6945   -0.0000 C   0  0  0  0  0  0  0  0  0  0  0  0
    1.2355    2.3284   -0.0000 C   0  0  0  0  0  0  0  0  0  0  0  0
    5.1438    0.0713   -0.0000 C   0  0  0  0  0  0  0  0  0  0  0  0
    6.4386   -2.1739   -0.0000 C   0  0  0  0  0  0  0  0  0  0  0  0
    6.4386    0.8434   -0.0000 C   0  0  0  0  0  0  0  0  0  0  0  0
    6.4149   -3.6588   -0.0000 C   0  0  0  0  0  0  0  0  0  0  0  0
    7.7335   -1.4136   -0.0000 C   0  0  0  0  0  0  0  0  0  0  0  0
    7.7335    0.0950   -0.0000 C   0  0  0  0  0  0  0  0  0  0  0  0
    7.6978   -4.3954   -0.0000 C   0  0  0  0  0  0  0  0  0  0  0  0
    5.0962   -4.3954   -0.0000 C   0  0  0  0  0  0  0  0  0  0  0  0
    9.0164   -2.1620   -0.0000 C   0  0  0  0  0  0  0  0  0  0  0  0
    9.0283    0.8553   -0.0000 C   0  0  0  0  0  0  0  0  0  0  0  0
    7.6859   -5.8803   -0.0000 C   0  0  0  0  0  0  0  0  0  0  0  0
    5.0844   -5.8922   -0.0000 C   0  0  0  0  0  0  0  0  0  0  0  0
   10.3113   -1.4018   -0.0000 O   0  0  0  0  0  0  0  0  0  0  0  0
   10.3232    0.1069   -0.0000 O   0  0  0  0  0  0  0  0  0  0  0  0
    8.9808   -6.6168   -0.0000 O   0  0  0  0  0  0  0  0  0  0  0  0
    6.3673   -6.6287   -0.0000 C   0  0  0  0  0  0  0  0  0  0  0  0
    8.9689   -8.1136   -0.0000 C   0  0  0  0  0  0  0  0  0  0  0  0
    6.3555   -8.1255   -0.0000 O   0  0  0  0  0  0  0  0  0  0  0  0
    5.0369   -8.8620   -0.0000 C   0  0  0  0  0  0  0  0  0  0  0  0
    3.7182   -8.1017   -0.0000 O   0  0  0  0  0  0  0  0  0  0  0  0
    5.0250  -10.3588   -0.0000 C   0  0  0  0  0  0  0  0  0  0  0  0
    3.7064  -11.0834   -0.0000 C   0  0  0  0  0  0  0  0  0  0  0  0
    6.3079  -11.0834   -0.0000 C   0  0  0  0  0  0  0  0  0  0  0  0
    3.6945  -12.5802   -0.0000 C   0  0  0  0  0  0  0  0  0  0  0  0
    6.2961  -12.5684   -0.0000 C   0  0  0  0  0  0  0  0  0  0  0  0
    4.9893  -13.3286   -0.0000 C   0  0  0  0  0  0  0  0  0  0  0  0
  1  2  2  0  0  0  0
  2  3  1  0  0  0  0
  2  4  1  0  0  0  0
  3  5  1  0  0  0  0
  4  6  2  0  0  0  0
  4  7  1  0  0  0  0
  5  8  2  0  0  0  0
  5  9  1  0  0  0  0
  6 10  1  0  0  0  0
  7 11  2  0  0  0  0
  8 12  1  0  0  0  0
  8 13  1  0  0  0  0
  9 14  2  0  0  0  0
 10 15  2  0  0  0  0
 12 16  1  0  0  0  0
 13 17  2  0  0  0  0
 14 18  1  0  0  0  0
 17 19  1  0  0  0  0
 18 20  1  0  0  0  0
 18 21  1  0  0  0  0
 19 22  1  0  0  0  0
 20 23  2  0  0  0  0
 20 24  1  0  0  0  0
 21 25  1  6  0  0  0
 22 26  1  1  0  0  0
 23 27  1  0  0  0  0
 24 28  2  0  0  0  0
 25 29  1  0  0  0  0
 26 30  1  0  0  0  0
 27 31  1  0  0  0  0
 27 32  2  0  0  0  0
 31 33  1  0  0  0  0
 32 34  1  0  0  0  0
 34 35  1  0  0  0  0
 35 36  2  0  0  0  0
 35 37  1  0  0  0  0
 37 38  2  0  0  0  0
 37 39  1  0  0  0  0
 38 40  1  0  0  0  0
 39 41  2  0  0  0  0
 40 42  2  0  0  0  0
 11 15  1  0  0  0  0
 14 17  1  0  0  0  0
 21 22  1  0  0  0  0
 28 32  1  0  0  0  0
 41 42  1  0  0  0  0
M  END
>  <MolRegNo>
387497

>  <m>


>  <Value>
0

>  <Unit>


>  <Type>
Inhibition

>  <Ligand Efficiency>


>  <Binding Efficiency>


>  <Surface Efficiency>


>  <Assay Index>
294024

>  <Assay Category>


>  <Assay Organism>
SARS coronavirus

>  <Target ID>
100499

>  <Target Name>
SARS coronavirus

>  <Target Organism>
SARS coronavirus

>  <Target Description>
Target is a complete organism

>  <Sequence Accession>


>  <Reference>
J. Med. Chem. 50 (17), 4087-4095 (2007)

>  <Pubmed ID>
17663539

>  <DOI>
10.1021/jm070295s

>  <InChI-Key>
OMVSZZGLJJZENQ-MQHRAKSTSA-N

>  <Molecular Formula>
C34H32O8

>  <Monoisotopic Mass>
568.209720

>  <Druglikeness>
-3.5402

$$$$
Compound 397
Actelion Java MolfileCreator 1.0

 19 21  0  0  0  0  0  0  0  0999 V2000
    0.0000   -0.0000   -0.0000 Cl  0  0  0  0  0  0  0  0  0  0  0  0
   -1.2996   -0.7325   -0.0000 C   0  0  0  0  0  0  0  0  0  0  0  0
   -1.3114   -2.2211   -0.0000 C   0  0  0  0  0  0  0  0  0  0  0  0
   -2.5992    0.0236   -0.0000 C   0  0  0  0  0  0  0  0  0  0  0  0
   -2.6228   -2.9536   -0.0000 N   0  0  0  0  0  0  0  0  0  0  0  0
   -3.8988   -0.7089   -0.0000 C   0  0  0  0  0  0  0  0  0  0  0  0
   -3.9224   -2.1975   -0.0000 C   0  0  0  0  0  0  0  0  0  0  0  0
   -5.1984    0.0473   -0.0000 O   0  0  0  0  0  0  0  0  0  0  0  0
   -6.4980   -0.6852   -0.0000 C   0  0  0  0  0  0  0  0  0  0  0  0
   -6.5098   -2.1621   -0.0000 O   0  0  0  0  0  0  0  0  0  0  0  0
   -7.7976    0.0709   -0.0000 C   0  0  0  0  0  0  0  0  0  0  0  0
   -9.0972   -0.6616   -0.0000 C   0  0  0  0  0  0  0  0  0  0  0  0
   -7.8094    1.5713   -0.0000 C   0  0  0  0  0  0  0  0  0  0  0  0
  -10.3968    0.0945   -0.0000 C   0  0  0  0  0  0  0  0  0  0  0  0
   -9.1090    2.3393   -0.0000 C   0  0  0  0  0  0  0  0  0  0  0  0
  -11.8382   -0.3544   -0.0000 N   0  0  0  0  0  0  0  0  0  0  0  0
  -10.4087    1.6068   -0.0000 C   0  0  0  0  0  0  0  0  0  0  0  0
  -12.7361    0.8743   -0.0000 C   0  0  0  0  0  0  0  0  0  0  0  0
  -11.8500    2.0794   -0.0000 C   0  0  0  0  0  0  0  0  0  0  0  0
  1  2  1  0  0  0  0
  2  3  2  0  0  0  0
  2  4  1  0  0  0  0
  3  5  1  0  0  0  0
  4  6  2  0  0  0  0
  5  7  2  0  0  0  0
  6  8  1  0  0  0  0
  8  9  1  0  0  0  0
  9 10  2  0  0  0  0
  9 11  1  0  0  0  0
 11 12  2  0  0  0  0
 11 13  1  0  0  0  0
 12 14  1  0  0  0  0
 13 15  2  0  0  0  0
 14 16  1  0  0  0  0
 14 17  2  0  0  0  0
 16 18  1  0  0  0  0
 17 19  1  0  0  0  0
  6  7  1  0  0  0  0
 15 17  1  0  0  0  0
 18 19  2  0  0  0  0
M  END
>  <MolRegNo>
493967

>  <m>
=

>  <Value>
230

>  <Unit>
nM

>  <Type>
IC50

>  <Ligand Efficiency>


>  <Binding Efficiency>


>  <Surface Efficiency>


>  <Assay Index>
341535

>  <Assay Category>


>  <Assay Organism>
SARS coronavirus

>  <Target ID>
100499

>  <Target Name>
SARS coronavirus

>  <Target Organism>
SARS coronavirus

>  <Target Description>
Target is a complete organism

>  <Sequence Accession>


>  <Reference>
Bioorg. Med. Chem. Lett. 18 (20), 5684-5688 (2008)

>  <Pubmed ID>
18796354

>  <DOI>
10.1016/j.bmcl.2008.08.082

>  <InChI-Key>
OPNCFNLNJUPFKN-UHFFFAOYSA-N

>  <Molecular Formula>
C14H9N2O2Cl

>  <Monoisotopic Mass>
272.035255

>  <Druglikeness>
-0.46366

$$$$
Compound 398
Actelion Java MolfileCreator 1.0

 25 28  0  0  0  0  0  0  0  0999 V2000
    0.0000   -0.0000   -0.0000 S   0  0  0  0  0  0  0  0  0  0  0  0
    1.2885   -0.7397   -0.0000 C   0  0  0  0  0  0  0  0  0  0  0  0
   -1.1214   -1.0141   -0.0000 C   0  0  0  0  0  0  0  0  0  0  0  0
    0.9544   -2.1952   -0.0000 C   0  0  0  0  0  0  0  0  0  0  0  0
    2.6843   -0.2744   -0.0000 C   0  0  0  0  0  0  0  0  0  0  0  0
   -0.5249   -2.3622   -0.0000 C   0  0  0  0  0  0  0  0  0  0  0  0
   -2.6008   -0.6800   -0.0000 C   0  0  0  0  0  0  0  0  0  0  0  0
    2.0520   -3.1854   -0.0000 C   0  0  0  0  0  0  0  0  0  0  0  0
    3.7819   -1.2646   -0.0000 C   0  0  0  0  0  0  0  0  0  0  0  0
   -3.0780    0.7635   -0.0000 N   0  0  0  0  0  0  0  0  0  0  0  0
    3.4598   -2.7082   -0.0000 C   0  0  0  0  0  0  0  0  0  0  0  0
   -2.2071    1.9804   -0.0000 C   0  0  0  0  0  0  0  0  0  0  0  0
   -4.5096    1.2288   -0.0000 C   0  0  0  0  0  0  0  0  0  0  0  0
   -0.7158    1.9924   -0.0000 O   0  0  0  0  0  0  0  0  0  0  0  0
   -3.1019    3.2212   -0.0000 C   0  0  0  0  0  0  0  0  0  0  0  0
   -5.8220    0.4891   -0.0000 C   0  0  0  0  0  0  0  0  0  0  0  0
   -4.5216    2.7440   -0.0000 C   0  0  0  0  0  0  0  0  0  0  0  0
   -2.6485    4.6528   -0.0000 O   0  0  0  0  0  0  0  0  0  0  0  0
   -5.8220   -1.0141   -0.0000 N   0  0  0  0  0  0  0  0  0  0  0  0
   -7.1343    1.2527   -0.0000 C   0  0  0  0  0  0  0  0  0  0  0  0
   -5.8339    3.5075   -0.0000 C   0  0  0  0  0  0  0  0  0  0  0  0
   -4.5335   -1.7537   -0.0000 O   0  0  0  0  0  0  0  0  0  0  0  0
   -7.1343   -1.7537   -0.0000 O   0  0  0  0  0  0  0  0  0  0  0  0
   -7.1462    2.7678   -0.0000 C   0  0  0  0  0  0  0  0  0  0  0  0
   -8.4586    3.5314   -0.0000 C   0  0  0  0  0  0  0  0  0  0  0  0
  1  2  1  0  0  0  0
  1  3  1  0  0  0  0
  2  4  2  0  0  0  0
  2  5  1  0  0  0  0
  3  6  2  0  0  0  0
  3  7  1  0  0  0  0
  4  8  1  0  0  0  0
  5  9  2  0  0  0  0
  7 10  1  0  0  0  0
  8 11  2  0  0  0  0
 10 12  1  0  0  0  0
 10 13  1  0  0  0  0
 12 14  2  0  0  0  0
 12 15  1  0  0  0  0
 13 16  2  0  0  0  0
 13 17  1  0  0  0  0
 15 18  2  0  0  0  0
 16 19  1  0  0  0  0
 16 20  1  0  0  0  0
 17 21  2  0  0  0  0
 19 22  2  0  0  0  0
 19 23  1  0  0  0  0
 20 24  2  0  0  0  0
 24 25  1  0  0  0  0
  4  6  1  0  0  0  0
  9 11  1  0  0  0  0
 15 17  1  0  0  0  0
 21 24  1  0  0  0  0
M  CHG  2  19   1  23  -1
M  END
>  <MolRegNo>
316474

>  <m>
=

>  <Value>
39

>  <Unit>
%

>  <Type>
Inhibition

>  <Ligand Efficiency>


>  <Binding Efficiency>


>  <Surface Efficiency>


>  <Assay Index>
240686

>  <Assay Category>


>  <Assay Organism>
SARS coronavirus

>  <Target ID>
20012

>  <Target Name>
SARS coronavirus 3C-like proteinase

>  <Target Organism>
SARS coronavirus

>  <Target Description>
Target is a single protein chain

>  <Sequence Accession>
P0C6U8

>  <Reference>
Bioorg. Med. Chem. Lett. 15 (12), 3058-3062 (2005)

>  <Pubmed ID>
15896959

>  <DOI>
10.1016/j.bmcl.2005.04.027

>  <InChI-Key>
OPRIYCBKEHNRHA-UHFFFAOYSA-N

>  <Molecular Formula>
C18H12N2O4S

>  <Monoisotopic Mass>
352.051778

>  <Druglikeness>
-3.87

$$$$
Compound 399
Actelion Java MolfileCreator 1.0

 27 30  0  0  0  0  0  0  0  0999 V2000
    0.0000   -0.0000   -0.0000 Cl  0  0  0  0  0  0  0  0  0  0  0  0
   -1.3032   -0.7345   -0.0000 C   0  0  0  0  0  0  0  0  0  0  0  0
   -2.6063    0.0237   -0.0000 C   0  0  0  0  0  0  0  0  0  0  0  0
   -1.3150   -2.2272   -0.0000 C   0  0  0  0  0  0  0  0  0  0  0  0
   -3.9095   -0.7108   -0.0000 C   0  0  0  0  0  0  0  0  0  0  0  0
   -2.6182    1.5283   -0.0000 C   0  0  0  0  0  0  0  0  0  0  0  0
   -2.6300   -2.9617   -0.0000 C   0  0  0  0  0  0  0  0  0  0  0  0
   -5.2127    0.0474   -0.0000 F   0  0  0  0  0  0  0  0  0  0  0  0
   -3.9213   -2.2035   -0.0000 C   0  0  0  0  0  0  0  0  0  0  0  0
   -1.4335    2.4168   -0.0000 S   0  0  0  0  0  0  0  0  0  0  0  0
   -3.8503    2.4049   -0.0000 N   0  0  0  0  0  0  0  0  0  0  0  0
   -1.9074    3.8503   -0.0000 C   0  0  0  0  0  0  0  0  0  0  0  0
   -5.3548    2.4049   -0.0000 C   0  0  0  0  0  0  0  0  0  0  0  0
   -3.4001    3.8384   -0.0000 C   0  0  0  0  0  0  0  0  0  0  0  0
   -6.1012    1.1136   -0.0000 N   0  0  0  0  0  0  0  0  0  0  0  0
   -6.1130    3.7081   -0.0000 N   0  0  0  0  0  0  0  0  0  0  0  0
   -4.2886    5.0586   -0.0000 O   0  0  0  0  0  0  0  0  0  0  0  0
   -7.6057    1.1136   -0.0000 C   0  0  0  0  0  0  0  0  0  0  0  0
   -7.6176    3.7081   -0.0000 C   0  0  0  0  0  0  0  0  0  0  0  0
   -8.3521   -0.1777   -0.0000 C   0  0  0  0  0  0  0  0  0  0  0  0
   -8.3758    2.4168   -0.0000 C   0  0  0  0  0  0  0  0  0  0  0  0
   -8.3876    5.0113   -0.0000 C   0  0  0  0  0  0  0  0  0  0  0  0
   -9.8567   -0.1659   -0.0000 C   0  0  0  0  0  0  0  0  0  0  0  0
   -7.5939   -1.4453   -0.0000 C   0  0  0  0  0  0  0  0  0  0  0  0
  -10.6030   -1.4572   -0.0000 C   0  0  0  0  0  0  0  0  0  0  0  0
   -8.3402   -2.7366   -0.0000 C   0  0  0  0  0  0  0  0  0  0  0  0
   -9.8567   -2.7366   -0.0000 C   0  0  0  0  0  0  0  0  0  0  0  0
  1  2  1  0  0  0  0
  2  3  2  0  0  0  0
  2  4  1  0  0  0  0
  3  5  1  0  0  0  0
  3  6  1  0  0  0  0
  4  7  2  0  0  0  0
  5  8  1  0  0  0  0
  5  9  2  0  0  0  0
  6 10  1  0  0  0  0
  6 11  1  0  0  0  0
 10 12  1  0  0  0  0
 11 13  1  0  0  0  0
 11 14  1  0  0  0  0
 13 15  2  0  0  0  0
 13 16  1  0  0  0  0
 14 17  2  0  0  0  0
 15 18  1  0  0  0  0
 16 19  2  0  0  0  0
 18 20  1  0  0  0  0
 18 21  2  0  0  0  0
 19 22  1  0  0  0  0
 20 23  2  0  0  0  0
 20 24  1  0  0  0  0
 23 25  1  0  0  0  0
 24 26  2  0  0  0  0
 25 27  2  0  0  0  0
  7  9  1  0  0  0  0
 12 14  1  0  0  0  0
 19 21  1  0  0  0  0
 26 27  1  0  0  0  0
M  END
>  <MolRegNo>
379283

>  <m>
<=

>  <Value>
50

>  <Unit>
%

>  <Type>
Inhibition

>  <Ligand Efficiency>


>  <Binding Efficiency>


>  <Surface Efficiency>


>  <Assay Index>
406904

>  <Assay Category>


>  <Assay Organism>
SARS coronavirus

>  <Target ID>
101075

>  <Target Name>
Replicase polyprotein 1ab

>  <Target Organism>
SARS coronavirus

>  <Target Description>
Target is a single protein chain

>  <Sequence Accession>
P0C6X7

>  <Reference>
Bioorg. Med. Chem. Lett. 18 (23), 6110-6114 (2008)

>  <Pubmed ID>
18947995

>  <DOI>
10.1016/j.bmcl.2008.10.023

>  <InChI-Key>
OTPCDAXONNMWAO-UHFFFAOYSA-N

>  <Molecular Formula>
C20H15N3OClFS

>  <Monoisotopic Mass>
399.060837

>  <Druglikeness>
1.4467

$$$$
Compound 400
Actelion Java MolfileCreator 1.0

 19 19  0  0  0  0  0  0  0  0999 V2000
    0.0000   -0.0000   -0.0000 O   0  0  0  0  0  0  0  0  0  0  0  0
    1.2933   -0.7356   -0.0000 C   0  0  0  0  0  0  0  0  0  0  0  0
    2.5865    0.0237   -0.0000 O   0  0  0  0  0  0  0  0  0  0  0  0
    1.2814   -2.2306   -0.0000 N   0  0  0  0  0  0  0  0  0  0  0  0
    2.5746    1.5424   -0.0000 C   0  0  0  0  0  0  0  0  0  0  0  0
    2.0170   -3.5238   -0.0000 C   0  0  0  0  0  0  0  0  0  0  0  0
    0.5220   -3.5238   -0.0000 C   0  0  0  0  0  0  0  0  0  0  0  0
    2.5509    3.0611   -0.0000 C   0  0  0  0  0  0  0  0  0  0  0  0
    4.0696    1.5543   -0.0000 C   0  0  0  0  0  0  0  0  0  0  0  0
    1.0560    1.5424   -0.0000 C   0  0  0  0  0  0  0  0  0  0  0  0
    3.2984   -2.7408   -0.0000 C   0  0  0  0  0  0  0  0  0  0  0  0
    2.7526   -4.8052   -0.0000 C   0  0  0  0  0  0  0  0  0  0  0  0
   -0.7949   -4.2594   -0.0000 C   0  0  0  0  0  0  0  0  0  0  0  0
    3.2628   -1.2221   -0.0000 O   0  0  0  0  0  0  0  0  0  0  0  0
    4.6035   -3.4526   -0.0000 O   0  0  0  0  0  0  0  0  0  0  0  0
    1.9933   -6.0985   -0.0000 O   0  0  0  0  0  0  0  0  0  0  0  0
    4.2476   -4.7934   -0.0000 O   0  0  0  0  0  0  0  0  0  0  0  0
    5.8849   -2.6696   -0.0000 C   0  0  0  0  0  0  0  0  0  0  0  0
    4.9951   -6.0866   -0.0000 C   0  0  0  0  0  0  0  0  0  0  0  0
  1  2  2  0  0  0  0
  2  3  1  0  0  0  0
  2  4  1  0  0  0  0
  3  5  1  0  0  0  0
  4  6  1  0  0  0  0
  4  7  1  0  0  0  0
  5  8  1  0  0  0  0
  5  9  1  0  0  0  0
  5 10  1  0  0  0  0
  6 11  1  0  0  0  0
  6 12  1  0  0  0  0
  7 13  1  0  0  0  0
 11 14  2  0  0  0  0
 11 15  1  0  0  0  0
 12 16  2  0  0  0  0
 12 17  1  0  0  0  0
 15 18  1  0  0  0  0
 17 19  1  0  0  0  0
  6  7  1  0  0  0  0
M  END
>  <MolRegNo>
333492

>  <m>
<

>  <Value>
10

>  <Unit>
%

>  <Type>
Inhibition

>  <Ligand Efficiency>


>  <Binding Efficiency>


>  <Surface Efficiency>


>  <Assay Index>
254534

>  <Assay Category>


>  <Assay Organism>
SARS coronavirus

>  <Target ID>
20012

>  <Target Name>
SARS coronavirus 3C-like proteinase

>  <Target Organism>
SARS coronavirus

>  <Target Description>
Target is a single protein chain

>  <Sequence Accession>
P0C6U8

>  <Reference>
Bioorg. Med. Chem. Lett. 15 (24), 5365-5369 (2005)

>  <Pubmed ID>
16216498

>  <DOI>
10.1016/j.bmcl.2005.09.012

>  <InChI-Key>
OTYXPTLNOLQYBC-UHFFFAOYSA-N

>  <Molecular Formula>
C12H19NO6

>  <Monoisotopic Mass>
273.121239

>  <Druglikeness>
-42.968

$$$$
Compound 401
Actelion Java MolfileCreator 1.0

 27 28  0  0  1  0  0  0  0  0999 V2000
    0.0000   -0.0000   -0.0000 O   0  0  0  0  0  0  0  0  0  0  0  0
   -0.0118    1.5154   -0.0000 C   0  0  0  0  0  0  0  0  0  0  0  0
    1.2786    2.2730   -0.0000 O   0  0  0  0  0  0  0  0  0  0  0  0
   -1.3259    2.2730   -0.0000 N   0  0  0  0  0  0  0  0  0  0  0  0
    2.5690    1.5390   -0.0000 C   0  0  0  0  0  0  0  0  0  0  0  0
   -2.6400    1.5390   -0.0000 C   0  0  0  0  0  0  0  0  0  0  0  0
    3.8594    2.2967   -0.0000 C   0  0  0  0  0  0  0  0  0  0  0  0
   -3.9541    2.2967   -0.0000 C   0  0  0  0  0  0  0  0  0  0  0  0
   -2.6519    0.0474   -0.0000 C   0  0  0  0  0  0  0  0  0  0  0  0
    5.1498    1.5509   -0.0000 C   0  0  0  0  0  0  0  0  0  0  0  0
    3.8476    3.8002   -0.0000 C   0  0  0  0  0  0  0  0  0  0  0  0
   -5.2682    1.5509   -0.0000 O   0  0  0  0  0  0  0  0  0  0  0  0
   -3.9660    3.8121   -0.0000 O   0  0  0  0  0  0  0  0  0  0  0  0
   -3.9660   -0.6866   -0.0000 C   0  0  0  0  0  0  0  0  0  0  0  0
    6.4402    2.3085   -0.0000 C   0  0  0  0  0  0  0  0  0  0  0  0
    5.1262    4.5697   -0.0000 C   0  0  0  0  0  0  0  0  0  0  0  0
   -2.6755    4.5816   -0.0000 C   0  0  0  0  0  0  0  0  0  0  0  0
   -5.2801    0.0710   -0.0000 C   0  0  0  0  0  0  0  0  0  0  0  0
    6.4284    3.8239   -0.0000 C   0  0  0  0  0  0  0  0  0  0  0  0
   -6.5941   -0.6630   -0.0000 C   0  0  0  0  0  0  0  0  0  0  0  0
   -6.6060   -2.1546   -0.0000 N   0  0  0  0  0  0  0  0  0  0  0  0
   -5.8720   -3.4451   -0.0000 C   0  0  0  0  0  0  0  0  0  0  0  0
   -7.3637   -3.4451   -0.0000 C   0  0  0  0  0  0  0  0  0  0  0  0
   -4.5816   -4.1791   -0.0000 C   0  0  0  0  0  0  0  0  0  0  0  0
   -4.5934   -5.6707   -0.0000 O   0  0  0  0  0  0  0  0  0  0  0  0
   -3.2912   -3.4214   -0.0000 O   0  0  0  0  0  0  0  0  0  0  0  0
   -2.0007   -4.1554   -0.0000 C   0  0  0  0  0  0  0  0  0  0  0  0
  1  2  2  0  0  0  0
  2  3  1  0  0  0  0
  2  4  1  0  0  0  0
  3  5  1  0  0  0  0
  6  4  1  1  0  0  0
  5  7  1  0  0  0  0
  6  8  1  0  0  0  0
  6  9  1  0  0  0  0
  7 10  2  0  0  0  0
  7 11  1  0  0  0  0
  8 12  2  0  0  0  0
  8 13  1  0  0  0  0
  9 14  1  0  0  0  0
 10 15  1  0  0  0  0
 11 16  2  0  0  0  0
 13 17  1  0  0  0  0
 14 18  1  0  0  0  0
 15 19  2  0  0  0  0
 18 20  1  0  0  0  0
 20 21  1  0  0  0  0
 21 22  1  0  0  0  0
 21 23  1  0  0  0  0
 22 24  1  0  0  0  0
 24 25  2  0  0  0  0
 24 26  1  0  0  0  0
 26 27  1  0  0  0  0
 16 19  1  0  0  0  0
 22 23  1  0  0  0  0
M  END
>  <MolRegNo>
333720

>  <m>
=

>  <Value>
48

>  <Unit>
%

>  <Type>
Inhibition

>  <Ligand Efficiency>


>  <Binding Efficiency>


>  <Surface Efficiency>


>  <Assay Index>
254531

>  <Assay Category>


>  <Assay Organism>
SARS coronavirus

>  <Target ID>
20012

>  <Target Name>
SARS coronavirus 3C-like proteinase

>  <Target Organism>
SARS coronavirus

>  <Target Description>
Target is a single protein chain

>  <Sequence Accession>
P0C6U8

>  <Reference>
Bioorg. Med. Chem. Lett. 15 (24), 5365-5369 (2005)

>  <Pubmed ID>
16216498

>  <DOI>
10.1016/j.bmcl.2005.09.012

>  <InChI-Key>
OXKSAQDBGFCKGT-FQWCMUAHSA-N

>  <Molecular Formula>
C19H26N2O6

>  <Monoisotopic Mass>
378.179088

>  <Druglikeness>
-14.022

$$$$
Compound 402
Actelion Java MolfileCreator 1.0

 18 19  0  0  1  0  0  0  0  0999 V2000
    0.0000   -0.0000   -0.0000 O   0  0  0  0  0  0  0  0  0  0  0  0
   -0.0119    1.5070   -0.0000 C   0  0  0  0  0  0  0  0  0  0  0  0
    1.2696    2.2782   -0.0000 N   0  0  0  0  0  0  0  0  0  0  0  0
   -1.3171    2.2782   -0.0000 C   0  0  0  0  0  0  0  0  0  0  0  0
    2.5511    1.5307   -0.0000 C   0  0  0  0  0  0  0  0  0  0  0  0
   -2.0884    3.5953   -0.0000 O   0  0  0  0  0  0  0  0  0  0  0  0
   -2.8359    2.2901   -0.0000 C   0  0  0  0  0  0  0  0  0  0  0  0
    3.8445    2.3020   -0.0000 C   0  0  0  0  0  0  0  0  0  0  0  0
    2.5393    0.0475   -0.0000 C   0  0  0  0  0  0  0  0  0  0  0  0
   -4.1530    1.5426   -0.0000 C   0  0  0  0  0  0  0  0  0  0  0  0
    3.8327    3.8089   -0.0000 O   0  0  0  0  0  0  0  0  0  0  0  0
    5.1379    1.5544   -0.0000 O   0  0  0  0  0  0  0  0  0  0  0  0
    3.8327   -0.6882   -0.0000 C   0  0  0  0  0  0  0  0  0  0  0  0
    3.8208   -2.1833   -0.0000 C   0  0  0  0  0  0  0  0  0  0  0  0
    5.1260    0.0712   -0.0000 C   0  0  0  0  0  0  0  0  0  0  0  0
    5.1142   -2.9190   -0.0000 C   0  0  0  0  0  0  0  0  0  0  0  0
    6.4194   -0.6645   -0.0000 C   0  0  0  0  0  0  0  0  0  0  0  0
    6.3957   -2.1596   -0.0000 C   0  0  0  0  0  0  0  0  0  0  0  0
  1  2  2  0  0  0  0
  2  3  1  0  0  0  0
  4  2  1  6  0  0  0
  5  3  1  1  0  0  0
  4  6  1  0  0  0  0
  4  7  1  0  0  0  0
  5  8  1  0  0  0  0
  5  9  1  0  0  0  0
  7 10  1  6  0  0  0
  8 11  2  0  0  0  0
  8 12  1  0  0  0  0
  9 13  1  0  0  0  0
 13 14  2  0  0  0  0
 13 15  1  0  0  0  0
 14 16  1  0  0  0  0
 15 17  2  0  0  0  0
 16 18  2  0  0  0  0
  6  7  1  0  0  0  0
 17 18  1  0  0  0  0
M  END
>  <MolRegNo>
333526

>  <m>
<

>  <Value>
10

>  <Unit>
%

>  <Type>
Inhibition

>  <Ligand Efficiency>


>  <Binding Efficiency>


>  <Surface Efficiency>


>  <Assay Index>
254534

>  <Assay Category>


>  <Assay Organism>
SARS coronavirus

>  <Target ID>
20012

>  <Target Name>
SARS coronavirus 3C-like proteinase

>  <Target Organism>
SARS coronavirus

>  <Target Description>
Target is a single protein chain

>  <Sequence Accession>
P0C6U8

>  <Reference>
Bioorg. Med. Chem. Lett. 15 (24), 5365-5369 (2005)

>  <Pubmed ID>
16216498

>  <DOI>
10.1016/j.bmcl.2005.09.012

>  <InChI-Key>
OYDIWJLZEXIHJY-IEBDPFPHSA-N

>  <Molecular Formula>
C13H15NO4

>  <Monoisotopic Mass>
249.100109

>  <Druglikeness>
-7.0238

$$$$
Compound 403
Actelion Java MolfileCreator 1.0

 18 19  0  0  1  0  0  0  0  0999 V2000
    0.0000   -0.0000   -0.0000 O   0  0  0  0  0  0  0  0  0  0  0  0
   -0.0118    1.5160   -0.0000 C   0  0  0  0  0  0  0  0  0  0  0  0
    1.2791    2.2739   -0.0000 N   0  0  0  0  0  0  0  0  0  0  0  0
   -1.3146    2.2739   -0.0000 C   0  0  0  0  0  0  0  0  0  0  0  0
    2.5700    1.5278   -0.0000 C   0  0  0  0  0  0  0  0  0  0  0  0
   -2.0726    3.5886   -0.0000 O   0  0  0  0  0  0  0  0  0  0  0  0
   -2.8306    2.2858   -0.0000 C   0  0  0  0  0  0  0  0  0  0  0  0
    3.8610    2.2858   -0.0000 C   0  0  0  0  0  0  0  0  0  0  0  0
    2.5582    0.0355   -0.0000 C   0  0  0  0  0  0  0  0  0  0  0  0
   -4.1452    1.5396   -0.0000 C   0  0  0  0  0  0  0  0  0  0  0  0
    3.8491    3.8017   -0.0000 O   0  0  0  0  0  0  0  0  0  0  0  0
    5.1519    1.5396   -0.0000 O   0  0  0  0  0  0  0  0  0  0  0  0
    3.8491   -0.7106   -0.0000 C   0  0  0  0  0  0  0  0  0  0  0  0
    3.8373   -2.2029   -0.0000 C   0  0  0  0  0  0  0  0  0  0  0  0
    5.1400    0.0474   -0.0000 C   0  0  0  0  0  0  0  0  0  0  0  0
    5.1282   -2.9372   -0.0000 C   0  0  0  0  0  0  0  0  0  0  0  0
    6.4310   -0.6869   -0.0000 C   0  0  0  0  0  0  0  0  0  0  0  0
    6.4191   -2.1792   -0.0000 C   0  0  0  0  0  0  0  0  0  0  0  0
  1  2  2  0  0  0  0
  2  3  1  0  0  0  0
  4  2  1  1  0  0  0
  5  3  1  6  0  0  0
  4  6  1  0  0  0  0
  4  7  1  0  0  0  0
  5  8  1  0  0  0  0
  5  9  1  0  0  0  0
  7 10  1  1  0  0  0
  8 11  2  0  0  0  0
  8 12  1  0  0  0  0
  9 13  1  0  0  0  0
 13 14  2  0  0  0  0
 13 15  1  0  0  0  0
 14 16  1  0  0  0  0
 15 17  2  0  0  0  0
 16 18  2  0  0  0  0
  6  7  1  0  0  0  0
 17 18  1  0  0  0  0
M  END
>  <MolRegNo>
333800

>  <m>
<

>  <Value>
10

>  <Unit>
%

>  <Type>
Inhibition

>  <Ligand Efficiency>


>  <Binding Efficiency>


>  <Surface Efficiency>


>  <Assay Index>
254534

>  <Assay Category>


>  <Assay Organism>
SARS coronavirus

>  <Target ID>
20012

>  <Target Name>
SARS coronavirus 3C-like proteinase

>  <Target Organism>
SARS coronavirus

>  <Target Description>
Target is a single protein chain

>  <Sequence Accession>
P0C6U8

>  <Reference>
Bioorg. Med. Chem. Lett. 15 (24), 5365-5369 (2005)

>  <Pubmed ID>
16216498

>  <DOI>
10.1016/j.bmcl.2005.09.012

>  <InChI-Key>
OYDIWJLZEXIHJY-INTQDDNPSA-N

>  <Molecular Formula>
C13H15NO4

>  <Monoisotopic Mass>
249.100109

>  <Druglikeness>
-7.0238

$$$$
Compound 404
Actelion Java MolfileCreator 1.0

 42 44  0  0  1  0  0  0  0  0999 V2000
    0.0000   -0.0000   -0.0000 O   0  0  0  0  0  0  0  0  0  0  0  0
    1.1088    1.0144   -0.0000 C   0  0  0  0  0  0  0  0  0  0  0  0
    2.5596    0.7077   -0.0000 N   0  0  0  0  0  0  0  0  0  0  0  0
    0.9436    2.5124   -0.0000 C   0  0  0  0  0  0  0  0  0  0  0  0
    3.3027    2.0170   -0.0000 C   0  0  0  0  0  0  0  0  0  0  0  0
    2.2883    3.1258   -0.0000 C   0  0  0  0  0  0  0  0  0  0  0  0
   -0.3657    3.2791   -0.0000 C   0  0  0  0  0  0  0  0  0  0  0  0
   -0.3775    4.7889   -0.0000 C   0  0  0  0  0  0  0  0  0  0  0  0
   -1.6867    5.5556   -0.0000 N   0  0  0  0  0  0  0  0  0  0  0  0
    0.9082    5.5438   -0.0000 C   0  0  0  0  0  0  0  0  0  0  0  0
   -2.9960    4.8243   -0.0000 C   0  0  0  0  0  0  0  0  0  0  0  0
    0.8965    7.0537   -0.0000 C   0  0  0  0  0  0  0  0  0  0  0  0
   -3.0078    3.3381   -0.0000 O   0  0  0  0  0  0  0  0  0  0  0  0
   -4.3053    5.5910   -0.0000 C   0  0  0  0  0  0  0  0  0  0  0  0
    2.1822    7.8086   -0.0000 C   0  0  0  0  0  0  0  0  0  0  0  0
   -5.6146    4.8597   -0.0000 N   0  0  0  0  0  0  0  0  0  0  0  0
   -4.3171    7.1008   -0.0000 C   0  0  0  0  0  0  0  0  0  0  0  0
    2.1704    9.3184   -0.0000 O   0  0  0  0  0  0  0  0  0  0  0  0
    3.4679    7.0655   -0.0000 O   0  0  0  0  0  0  0  0  0  0  0  0
   -6.9239    5.6264   -0.0000 C   0  0  0  0  0  0  0  0  0  0  0  0
   -3.0314    7.8558   -0.0000 C   0  0  0  0  0  0  0  0  0  0  0  0
    4.7536    7.8204   -0.0000 C   0  0  0  0  0  0  0  0  0  0  0  0
   -6.9357    7.1362   -0.0000 O   0  0  0  0  0  0  0  0  0  0  0  0
   -8.2332    4.8951   -0.0000 C   0  0  0  0  0  0  0  0  0  0  0  0
   -1.7575    7.1126   -0.0000 C   0  0  0  0  0  0  0  0  0  0  0  0
   -3.0550    9.3538   -0.0000 C   0  0  0  0  0  0  0  0  0  0  0  0
    6.0393    7.0773   -0.0000 C   0  0  0  0  0  0  0  0  0  0  0  0
   -9.5425    5.6618   -0.0000 N   0  0  0  0  0  0  0  0  0  0  0  0
   -8.2450    3.4089   -0.0000 C   0  0  0  0  0  0  0  0  0  0  0  0
   -0.4718    7.8675   -0.0000 C   0  0  0  0  0  0  0  0  0  0  0  0
   -1.7811   10.1205   -0.0000 C   0  0  0  0  0  0  0  0  0  0  0  0
  -10.8518    4.9305   -0.0000 C   0  0  0  0  0  0  0  0  0  0  0  0
   -9.5543    2.6776   -0.0000 C   0  0  0  0  0  0  0  0  0  0  0  0
   -6.9593    2.6658   -0.0000 C   0  0  0  0  0  0  0  0  0  0  0  0
   -0.4836    9.3774   -0.0000 C   0  0  0  0  0  0  0  0  0  0  0  0
  -10.8636    3.4443   -0.0000 O   0  0  0  0  0  0  0  0  0  0  0  0
  -12.1611    5.6972   -0.0000 C   0  0  0  0  0  0  0  0  0  0  0  0
  -12.3262    7.1952   -0.0000 N   0  0  0  0  0  0  0  0  0  0  0  0
  -13.5411    5.1074   -0.0000 C   0  0  0  0  0  0  0  0  0  0  0  0
  -13.8006    7.5255   -0.0000 O   0  0  0  0  0  0  0  0  0  0  0  0
  -14.5556    6.2280   -0.0000 C   0  0  0  0  0  0  0  0  0  0  0  0
  -16.0536    6.0864   -0.0000 C   0  0  0  0  0  0  0  0  0  0  0  0
  1  2  2  0  0  0  0
  2  3  1  0  0  0  0
  2  4  1  0  0  0  0
  3  5  1  0  0  0  0
  4  6  1  0  0  0  0
  4  7  1  6  0  0  0
  7  8  1  0  0  0  0
  8  9  1  6  0  0  0
  8 10  1  0  0  0  0
  9 11  1  0  0  0  0
 10 12  2  0  0  0  0
 11 13  2  0  0  0  0
 11 14  1  0  0  0  0
 12 15  1  0  0  0  0
 14 16  1  1  0  0  0
 14 17  1  0  0  0  0
 15 18  2  0  0  0  0
 15 19  1  0  0  0  0
 16 20  1  0  0  0  0
 17 21  1  0  0  0  0
 19 22  1  0  0  0  0
 20 23  2  0  0  0  0
 20 24  1  0  0  0  0
 21 25  2  0  0  0  0
 21 26  1  0  0  0  0
 22 27  1  0  0  0  0
 24 28  1  6  0  0  0
 24 29  1  0  0  0  0
 25 30  1  0  0  0  0
 26 31  2  0  0  0  0
 28 32  1  0  0  0  0
 29 33  1  0  0  0  0
 29 34  1  0  0  0  0
 30 35  2  0  0  0  0
 32 36  2  0  0  0  0
 32 37  1  0  0  0  0
 37 38  2  0  0  0  0
 37 39  1  0  0  0  0
 38 40  1  0  0  0  0
 39 41  2  0  0  0  0
 41 42  1  0  0  0  0
  5  6  1  0  0  0  0
 31 35  1  0  0  0  0
 40 41  1  0  0  0  0
M  END
>  <MolRegNo>
399195

>  <m>


>  <Value>
0

>  <Unit>


>  <Type>
IC50

>  <Ligand Efficiency>


>  <Binding Efficiency>


>  <Surface Efficiency>


>  <Assay Index>
298649

>  <Assay Category>


>  <Assay Organism>
SARS coronavirus

>  <Target ID>
100499

>  <Target Name>
SARS coronavirus

>  <Target Organism>
SARS coronavirus

>  <Target Description>
Target is a complete organism

>  <Sequence Accession>


>  <Reference>
Bioorg. Med. Chem. Lett. 17 (21), 5876-5880 (2007)

>  <Pubmed ID>
17855091

>  <DOI>
10.1016/j.bmcl.2007.08.031

>  <InChI-Key>
PANGWSCMXDVPFP-LNEBKTTKSA-N

>  <Molecular Formula>
C30H39N5O7

>  <Monoisotopic Mass>
581.284950

>  <Druglikeness>
-2.618

$$$$
Compound 405
Actelion Java MolfileCreator 1.0

 15 16  0  0  0  0  0  0  0  0999 V2000
    0.0000   -0.0000   -0.0000 Cl  0  0  0  0  0  0  0  0  0  0  0  0
   -1.3049   -0.7355   -0.0000 C   0  0  0  0  0  0  0  0  0  0  0  0
   -2.6098    0.0237   -0.0000 C   0  0  0  0  0  0  0  0  0  0  0  0
   -1.3167   -2.2302   -0.0000 C   0  0  0  0  0  0  0  0  0  0  0  0
   -3.9147   -0.7118   -0.0000 C   0  0  0  0  0  0  0  0  0  0  0  0
   -2.6335   -2.9656   -0.0000 C   0  0  0  0  0  0  0  0  0  0  0  0
   -5.2195    0.0475   -0.0000 O   0  0  0  0  0  0  0  0  0  0  0  0
   -3.9265   -2.1946   -0.0000 C   0  0  0  0  0  0  0  0  0  0  0  0
   -6.5244   -0.6880   -0.0000 C   0  0  0  0  0  0  0  0  0  0  0  0
   -6.5363   -2.1709   -0.0000 O   0  0  0  0  0  0  0  0  0  0  0  0
   -7.8293    0.0712   -0.0000 C   0  0  0  0  0  0  0  0  0  0  0  0
   -9.2054   -0.5220   -0.0000 O   0  0  0  0  0  0  0  0  0  0  0  0
   -7.9954    1.5659   -0.0000 C   0  0  0  0  0  0  0  0  0  0  0  0
  -10.2137    0.6050   -0.0000 C   0  0  0  0  0  0  0  0  0  0  0  0
   -9.4663    1.8862   -0.0000 C   0  0  0  0  0  0  0  0  0  0  0  0
  1  2  1  0  0  0  0
  2  3  2  0  0  0  0
  2  4  1  0  0  0  0
  3  5  1  0  0  0  0
  4  6  2  0  0  0  0
  5  7  1  0  0  0  0
  5  8  2  0  0  0  0
  7  9  1  0  0  0  0
  9 10  2  0  0  0  0
  9 11  1  0  0  0  0
 11 12  1  0  0  0  0
 11 13  2  0  0  0  0
 12 14  1  0  0  0  0
 13 15  1  0  0  0  0
  6  8  1  0  0  0  0
 14 15  2  0  0  0  0
M  END
>  <MolRegNo>
371878

>  <m>
=

>  <Value>
40

>  <Unit>
%

>  <Type>
Inhibition

>  <Ligand Efficiency>


>  <Binding Efficiency>


>  <Surface Efficiency>


>  <Assay Index>
278390

>  <Assay Category>


>  <Assay Organism>
SARS coronavirus

>  <Target ID>
20012

>  <Target Name>
SARS coronavirus 3C-like proteinase

>  <Target Organism>
SARS coronavirus

>  <Target Description>
Target is a single protein chain

>  <Sequence Accession>
P0C6U8

>  <Reference>
J. Med. Chem. 50 (8), 1850-1864 (2007)

>  <Pubmed ID>
17381079

>  <DOI>
10.1021/jm061425k

>  <InChI-Key>
PCBSTQCIXZMXDG-UHFFFAOYSA-N

>  <Molecular Formula>
C11H7O3Cl

>  <Monoisotopic Mass>
222.008372

>  <Druglikeness>
-0.5995

$$$$
Compound 406
Actelion Java MolfileCreator 1.0

 18 19  0  0  0  0  0  0  0  0999 V2000
    0.0000   -0.0000   -0.0000 O   0  0  0  0  0  0  0  0  0  0  0  0
   -0.0118    1.5154   -0.0000 C   0  0  0  0  0  0  0  0  0  0  0  0
    1.2787    2.2732   -0.0000 O   0  0  0  0  0  0  0  0  0  0  0  0
   -1.3260    2.2732   -0.0000 C   0  0  0  0  0  0  0  0  0  0  0  0
    2.5692    1.5391   -0.0000 C   0  0  0  0  0  0  0  0  0  0  0  0
   -2.0837    3.5874   -0.0000 N   0  0  0  0  0  0  0  0  0  0  0  0
   -2.8415    2.2850   -0.0000 C   0  0  0  0  0  0  0  0  0  0  0  0
   -2.0956    5.1028   -0.0000 C   0  0  0  0  0  0  0  0  0  0  0  0
   -0.8051    5.8605   -0.0000 C   0  0  0  0  0  0  0  0  0  0  0  0
   -0.8169    7.3760   -0.0000 O   0  0  0  0  0  0  0  0  0  0  0  0
    0.4854    5.1265   -0.0000 O   0  0  0  0  0  0  0  0  0  0  0  0
    1.7759    5.8960   -0.0000 C   0  0  0  0  0  0  0  0  0  0  0  0
    3.0664    5.1620   -0.0000 C   0  0  0  0  0  0  0  0  0  0  0  0
    3.0546    3.6702   -0.0000 C   0  0  0  0  0  0  0  0  0  0  0  0
    4.3451    5.9316   -0.0000 C   0  0  0  0  0  0  0  0  0  0  0  0
    4.3451    2.9362   -0.0000 C   0  0  0  0  0  0  0  0  0  0  0  0
    5.6356    5.1975   -0.0000 C   0  0  0  0  0  0  0  0  0  0  0  0
    5.6356    3.7057   -0.0000 C   0  0  0  0  0  0  0  0  0  0  0  0
  1  2  2  0  0  0  0
  2  3  1  0  0  0  0
  2  4  1  0  0  0  0
  3  5  1  0  0  0  0
  4  6  1  0  0  0  0
  4  7  1  0  0  0  0
  6  8  1  0  0  0  0
  8  9  1  0  0  0  0
  9 10  2  0  0  0  0
  9 11  1  0  0  0  0
 11 12  1  0  0  0  0
 12 13  1  0  0  0  0
 13 14  2  0  0  0  0
 13 15  1  0  0  0  0
 14 16  1  0  0  0  0
 15 17  2  0  0  0  0
 16 18  2  0  0  0  0
  6  7  1  0  0  0  0
 17 18  1  0  0  0  0
M  END
>  <MolRegNo>
333533

>  <m>
=

>  <Value>
26

>  <Unit>
%

>  <Type>
Inhibition

>  <Ligand Efficiency>


>  <Binding Efficiency>


>  <Surface Efficiency>


>  <Assay Index>
254531

>  <Assay Category>


>  <Assay Organism>
SARS coronavirus

>  <Target ID>
20012

>  <Target Name>
SARS coronavirus 3C-like proteinase

>  <Target Organism>
SARS coronavirus

>  <Target Description>
Target is a single protein chain

>  <Sequence Accession>
P0C6U8

>  <Reference>
Bioorg. Med. Chem. Lett. 15 (24), 5365-5369 (2005)

>  <Pubmed ID>
16216498

>  <DOI>
10.1016/j.bmcl.2005.09.012

>  <InChI-Key>
PCIUUICNOBVGMX-UHFFFAOYSA-N

>  <Molecular Formula>
C13H15NO4

>  <Monoisotopic Mass>
249.100109

>  <Druglikeness>
-0.40069

$$$$
Compound 407
Actelion Java MolfileCreator 1.0

 26 29  0  0  0  0  0  0  0  0999 V2000
    0.0000   -0.0000   -0.0000 O   0  0  0  0  0  0  0  0  0  0  0  0
   -1.5042    0.0118   -0.0000 C   0  0  0  0  0  0  0  0  0  0  0  0
   -2.3973   -1.1987   -0.0000 N   0  0  0  0  0  0  0  0  0  0  0  0
   -2.3973    1.2457   -0.0000 C   0  0  0  0  0  0  0  0  0  0  0  0
   -3.8428   -0.7286   -0.0000 C   0  0  0  0  0  0  0  0  0  0  0  0
   -1.9508   -2.6088   -0.0000 C   0  0  0  0  0  0  0  0  0  0  0  0
   -1.9508    2.6794   -0.0000 O   0  0  0  0  0  0  0  0  0  0  0  0
   -3.8428    0.7874   -0.0000 C   0  0  0  0  0  0  0  0  0  0  0  0
   -5.1472   -1.4689   -0.0000 C   0  0  0  0  0  0  0  0  0  0  0  0
   -2.9614   -3.7017   -0.0000 C   0  0  0  0  0  0  0  0  0  0  0  0
   -5.1589    1.5395   -0.0000 C   0  0  0  0  0  0  0  0  0  0  0  0
   -6.4516   -0.7051   -0.0000 C   0  0  0  0  0  0  0  0  0  0  0  0
   -2.5031   -5.1002   -0.0000 C   0  0  0  0  0  0  0  0  0  0  0  0
   -4.4303   -3.3727   -0.0000 C   0  0  0  0  0  0  0  0  0  0  0  0
   -6.4516    0.7991   -0.0000 C   0  0  0  0  0  0  0  0  0  0  0  0
   -3.5020   -6.2048   -0.0000 C   0  0  0  0  0  0  0  0  0  0  0  0
   -5.4410   -4.4656   -0.0000 C   0  0  0  0  0  0  0  0  0  0  0  0
   -7.7560    1.5512   -0.0000 C   0  0  0  0  0  0  0  0  0  0  0  0
   -4.9709   -5.8875   -0.0000 C   0  0  0  0  0  0  0  0  0  0  0  0
   -3.0437   -7.6033   -0.0000 C   0  0  0  0  0  0  0  0  0  0  0  0
   -7.7678    3.0554   -0.0000 O   0  0  0  0  0  0  0  0  0  0  0  0
   -9.0605    0.8109   -0.0000 O   0  0  0  0  0  0  0  0  0  0  0  0
   -5.9816   -6.9804   -0.0000 C   0  0  0  0  0  0  0  0  0  0  0  0
   -4.0425   -8.7079   -0.0000 C   0  0  0  0  0  0  0  0  0  0  0  0
  -10.3649    1.5630   -0.0000 C   0  0  0  0  0  0  0  0  0  0  0  0
   -5.5350   -8.3906   -0.0000 C   0  0  0  0  0  0  0  0  0  0  0  0
  1  2  2  0  0  0  0
  2  3  1  0  0  0  0
  2  4  1  0  0  0  0
  3  5  1  0  0  0  0
  3  6  1  0  0  0  0
  4  7  2  0  0  0  0
  4  8  1  0  0  0  0
  5  9  1  0  0  0  0
  6 10  1  0  0  0  0
  8 11  1  0  0  0  0
  9 12  2  0  0  0  0
 10 13  2  0  0  0  0
 10 14  1  0  0  0  0
 11 15  2  0  0  0  0
 13 16  1  0  0  0  0
 14 17  2  0  0  0  0
 15 18  1  0  0  0  0
 16 19  1  0  0  0  0
 16 20  2  0  0  0  0
 18 21  2  0  0  0  0
 18 22  1  0  0  0  0
 19 23  2  0  0  0  0
 20 24  1  0  0  0  0
 22 25  1  0  0  0  0
 23 26  1  0  0  0  0
  5  8  2  0  0  0  0
 12 15  1  0  0  0  0
 17 19  1  0  0  0  0
 24 26  2  0  0  0  0
M  END
>  <MolRegNo>
348638

>  <m>
<

>  <Value>
25

>  <Unit>
%

>  <Type>
Inhibition

>  <Ligand Efficiency>


>  <Binding Efficiency>


>  <Surface Efficiency>


>  <Assay Index>
262887

>  <Assay Category>


>  <Assay Organism>
SARS coronavirus

>  <Target ID>
20012

>  <Target Name>
SARS coronavirus 3C-like proteinase

>  <Target Organism>
SARS coronavirus

>  <Target Description>
Target is a single protein chain

>  <Sequence Accession>
P0C6U8

>  <Reference>
J. Med. Chem. 49 (12), 3440-3443 (2006)

>  <Pubmed ID>
16759084

>  <DOI>
10.1021/jm0602357

>  <InChI-Key>
PDHAJKZTPKLFFO-UHFFFAOYSA-N

>  <Molecular Formula>
C21H15NO4

>  <Monoisotopic Mass>
345.100109

>  <Druglikeness>
-2.4121

$$$$
Compound 408
Actelion Java MolfileCreator 1.0

 24 26  0  0  0  0  0  0  0  0999 V2000
    0.0000   -0.0000   -0.0000 O   0  0  0  0  0  0  0  0  0  0  0  0
    1.2917    0.7584   -0.0000 C   0  0  0  0  0  0  0  0  0  0  0  0
    2.5833    0.0237   -0.0000 N   0  0  0  0  0  0  0  0  0  0  0  0
    1.2798    2.2752   -0.0000 C   0  0  0  0  0  0  0  0  0  0  0  0
    2.5715   -1.4694   -0.0000 C   0  0  0  0  0  0  0  0  0  0  0  0
   -0.0356    3.0336   -0.0000 C   0  0  0  0  0  0  0  0  0  0  0  0
    2.5715    3.0336   -0.0000 C   0  0  0  0  0  0  0  0  0  0  0  0
    2.5596   -2.9625   -0.0000 C   0  0  0  0  0  0  0  0  0  0  0  0
    1.0547   -1.4576   -0.0000 C   0  0  0  0  0  0  0  0  0  0  0  0
    4.0646   -1.4576   -0.0000 C   0  0  0  0  0  0  0  0  0  0  0  0
   -0.0474    4.5504   -0.0000 C   0  0  0  0  0  0  0  0  0  0  0  0
   -1.3509    2.2989   -0.0000 C   0  0  0  0  0  0  0  0  0  0  0  0
    2.5596    4.5504   -0.0000 C   0  0  0  0  0  0  0  0  0  0  0  0
    3.8513   -3.6972   -0.0000 C   0  0  0  0  0  0  0  0  0  0  0  0
    1.2443   -3.6972   -0.0000 C   0  0  0  0  0  0  0  0  0  0  0  0
    1.2443    5.3088   -0.0000 C   0  0  0  0  0  0  0  0  0  0  0  0
    3.8513    5.3088   -0.0000 N   0  0  0  0  0  0  0  0  0  0  0  0
    3.8394   -5.1903   -0.0000 C   0  0  0  0  0  0  0  0  0  0  0  0
    5.1429   -2.9388   -0.0000 C   0  0  0  0  0  0  0  0  0  0  0  0
    1.2324   -5.1903   -0.0000 C   0  0  0  0  0  0  0  0  0  0  0  0
    2.5241   -5.9250   -0.0000 C   0  0  0  0  0  0  0  0  0  0  0  0
    5.1311   -5.9250   -0.0000 C   0  0  0  0  0  0  0  0  0  0  0  0
    6.4346   -3.6735   -0.0000 C   0  0  0  0  0  0  0  0  0  0  0  0
    6.4227   -5.1666   -0.0000 C   0  0  0  0  0  0  0  0  0  0  0  0
  1  2  2  0  0  0  0
  2  3  1  0  0  0  0
  2  4  1  0  0  0  0
  3  5  1  0  0  0  0
  4  6  2  0  0  0  0
  4  7  1  0  0  0  0
  5  8  1  0  0  0  0
  5  9  1  0  0  0  0
  5 10  1  0  0  0  0
  6 11  1  0  0  0  0
  6 12  1  0  0  0  0
  7 13  2  0  0  0  0
  8 14  1  0  0  0  0
  8 15  2  0  0  0  0
 11 16  2  0  0  0  0
 13 17  1  0  0  0  0
 14 18  1  0  0  0  0
 14 19  2  0  0  0  0
 15 20  1  0  0  0  0
 18 21  1  0  0  0  0
 18 22  2  0  0  0  0
 19 23  1  0  0  0  0
 22 24  1  0  0  0  0
 13 16  1  0  0  0  0
 20 21  2  0  0  0  0
 23 24  2  0  0  0  0
M  END
>  <MolRegNo>
563863

>  <m>


>  <Value>
0

>  <Unit>


>  <Type>
EC50

>  <Ligand Efficiency>


>  <Binding Efficiency>


>  <Surface Efficiency>


>  <Assay Index>
425462

>  <Assay Category>


>  <Assay Organism>
SARS coronavirus

>  <Target ID>
100499

>  <Target Name>
SARS coronavirus

>  <Target Organism>
SARS coronavirus

>  <Target Description>
Target is a complete organism

>  <Sequence Accession>


>  <Reference>
J. Med. Chem. 52 (16), 5228-5240 (2009)

>  <Pubmed ID>
19645480

>  <DOI>
10.1021/jm900611t

>  <InChI-Key>
PDOYWSZZBAEVAH-UHFFFAOYSA-N

>  <Molecular Formula>
C21H22N2O

>  <Monoisotopic Mass>
318.173213

>  <Druglikeness>
2.4325

$$$$
Compound 409
Actelion Java MolfileCreator 1.0

 41 42  0  0  1  0  0  0  0  0999 V2000
    0.0000   -0.0000   -0.0000 S   0  0  0  0  0  0  0  0  0  0  0  0
    1.2034    0.8849   -0.0000 C   0  0  0  0  0  0  0  0  0  0  0  0
    0.4365   -1.4158   -0.0000 C   0  0  0  0  0  0  0  0  0  0  0  0
    1.2034    2.3950   -0.0000 C   0  0  0  0  0  0  0  0  0  0  0  0
    2.3950    0.0118   -0.0000 C   0  0  0  0  0  0  0  0  0  0  0  0
    1.9231   -1.4158   -0.0000 C   0  0  0  0  0  0  0  0  0  0  0  0
    2.4894    3.1501   -0.0000 O   0  0  0  0  0  0  0  0  0  0  0  0
   -0.1062    3.1619   -0.0000 C   0  0  0  0  0  0  0  0  0  0  0  0
   -1.4158    2.4304   -0.0000 N   0  0  0  0  0  0  0  0  0  0  0  0
   -0.1062    4.6720   -0.0000 C   0  0  0  0  0  0  0  0  0  0  0  0
   -2.7253    3.1973   -0.0000 C   0  0  0  0  0  0  0  0  0  0  0  0
    1.1798    5.4271   -0.0000 C   0  0  0  0  0  0  0  0  0  0  0  0
   -2.7253    4.7074   -0.0000 O   0  0  0  0  0  0  0  0  0  0  0  0
   -4.0349    2.4658   -0.0000 C   0  0  0  0  0  0  0  0  0  0  0  0
    1.3214    6.9254   -0.0000 C   0  0  0  0  0  0  0  0  0  0  0  0
    2.5248    4.8136   -0.0000 C   0  0  0  0  0  0  0  0  0  0  0  0
   -5.3445    3.2327   -0.0000 N   0  0  0  0  0  0  0  0  0  0  0  0
   -4.0585    0.9792   -0.0000 C   0  0  0  0  0  0  0  0  0  0  0  0
    0.2006    7.9401   -0.0000 O   0  0  0  0  0  0  0  0  0  0  0  0
    2.7725    7.2440   -0.0000 N   0  0  0  0  0  0  0  0  0  0  0  0
    3.5276    5.9344   -0.0000 C   0  0  0  0  0  0  0  0  0  0  0  0
   -6.6541    2.5012   -0.0000 C   0  0  0  0  0  0  0  0  0  0  0  0
   -2.7725    0.2360   -0.0000 C   0  0  0  0  0  0  0  0  0  0  0  0
   -6.6777    1.0146   -0.0000 O   0  0  0  0  0  0  0  0  0  0  0  0
   -7.9637    3.2680   -0.0000 C   0  0  0  0  0  0  0  0  0  0  0  0
   -2.7961   -1.2506   -0.0000 C   0  0  0  0  0  0  0  0  0  0  0  0
   -1.4865    0.9910   -0.0000 C   0  0  0  0  0  0  0  0  0  0  0  0
   -9.2732    2.5366   -0.0000 N   0  0  0  0  0  0  0  0  0  0  0  0
   -7.9637    4.7782   -0.0000 C   0  0  0  0  0  0  0  0  0  0  0  0
  -10.5828    3.3034   -0.0000 C   0  0  0  0  0  0  0  0  0  0  0  0
   -9.2732    5.5451   -0.0000 O   0  0  0  0  0  0  0  0  0  0  0  0
   -6.6777    5.5333   -0.0000 C   0  0  0  0  0  0  0  0  0  0  0  0
  -10.5828    4.8136   -0.0000 O   0  0  0  0  0  0  0  0  0  0  0  0
  -11.8924    2.5720   -0.0000 C   0  0  0  0  0  0  0  0  0  0  0  0
  -13.2020    3.3388   -0.0000 N   0  0  0  0  0  0  0  0  0  0  0  0
  -11.9160    1.0854   -0.0000 C   0  0  0  0  0  0  0  0  0  0  0  0
  -14.5115    2.6074   -0.0000 C   0  0  0  0  0  0  0  0  0  0  0  0
  -13.2256    0.3539   -0.0000 C   0  0  0  0  0  0  0  0  0  0  0  0
  -10.6300    0.3421   -0.0000 C   0  0  0  0  0  0  0  0  0  0  0  0
  -14.5351    1.1208   -0.0000 O   0  0  0  0  0  0  0  0  0  0  0  0
  -15.8211    3.3742   -0.0000 C   0  0  0  0  0  0  0  0  0  0  0  0
  1  2  1  0  0  0  0
  1  3  1  0  0  0  0
  2  4  1  0  0  0  0
  2  5  2  0  0  0  0
  3  6  2  0  0  0  0
  4  7  2  0  0  0  0
  4  8  1  0  0  0  0
  8  9  1  1  0  0  0
  8 10  1  0  0  0  0
  9 11  1  0  0  0  0
 12 10  1  1  0  0  0
 11 13  2  0  0  0  0
 11 14  1  0  0  0  0
 12 15  1  0  0  0  0
 12 16  1  0  0  0  0
 14 17  1  6  0  0  0
 14 18  1  0  0  0  0
 15 19  2  0  0  0  0
 15 20  1  0  0  0  0
 16 21  1  0  0  0  0
 17 22  1  0  0  0  0
 18 23  1  0  0  0  0
 22 24  2  0  0  0  0
 22 25  1  0  0  0  0
 23 26  1  0  0  0  0
 23 27  1  0  0  0  0
 25 28  1  1  0  0  0
 25 29  1  0  0  0  0
 28 30  1  0  0  0  0
 29 31  1  6  0  0  0
 29 32  1  0  0  0  0
 30 33  2  0  0  0  0
 30 34  1  0  0  0  0
 34 35  1  6  0  0  0
 34 36  1  0  0  0  0
 35 37  1  0  0  0  0
 36 38  1  0  0  0  0
 36 39  1  0  0  0  0
 37 40  2  0  0  0  0
 37 41  1  0  0  0  0
  5  6  1  0  0  0  0
 20 21  1  0  0  0  0
M  END
>  <MolRegNo>
371776

>  <m>
=

>  <Value>
23

>  <Unit>
%

>  <Type>
Inhibition

>  <Ligand Efficiency>


>  <Binding Efficiency>


>  <Surface Efficiency>


>  <Assay Index>
278390

>  <Assay Category>


>  <Assay Organism>
SARS coronavirus

>  <Target ID>
20012

>  <Target Name>
SARS coronavirus 3C-like proteinase

>  <Target Organism>
SARS coronavirus

>  <Target Description>
Target is a single protein chain

>  <Sequence Accession>
P0C6U8

>  <Reference>
J. Med. Chem. 50 (8), 1850-1864 (2007)

>  <Pubmed ID>
17381079

>  <DOI>
10.1021/jm061425k

>  <InChI-Key>
PDRHQVCXIJDKOQ-QMOFSAQNSA-N

>  <Molecular Formula>
C28H43N5O7S

>  <Monoisotopic Mass>
593.288320

>  <Druglikeness>
1.3347

$$$$
Compound 410
Actelion Java MolfileCreator 1.0

 18 20  0  0  0  0  0  0  0  0999 V2000
    0.0000   -0.0000   -0.0000 Cl  0  0  0  0  0  0  0  0  0  0  0  0
   -1.3524   -0.6350   -0.0000 C   0  0  0  0  0  0  0  0  0  0  0  0
   -1.4818   -2.1168   -0.0000 N   0  0  0  0  0  0  0  0  0  0  0  0
   -2.5990    0.2117   -0.0000 C   0  0  0  0  0  0  0  0  0  0  0  0
   -2.8459   -2.7518   -0.0000 C   0  0  0  0  0  0  0  0  0  0  0  0
   -2.8106    1.7052   -0.0000 N   0  0  0  0  0  0  0  0  0  0  0  0
   -3.9631   -0.4234   -0.0000 C   0  0  0  0  0  0  0  0  0  0  0  0
   -4.0925   -1.8934   -0.0000 N   0  0  0  0  0  0  0  0  0  0  0  0
   -4.2924    1.9757   -0.0000 C   0  0  0  0  0  0  0  0  0  0  0  0
   -4.9980    0.6586   -0.0000 N   0  0  0  0  0  0  0  0  0  0  0  0
   -6.4915    0.4704   -0.0000 C   0  0  0  0  0  0  0  0  0  0  0  0
   -7.5381    1.5641   -0.0000 O   0  0  0  0  0  0  0  0  0  0  0  0
   -7.2089   -0.8350   -0.0000 C   0  0  0  0  0  0  0  0  0  0  0  0
   -8.8905    0.9173   -0.0000 C   0  0  0  0  0  0  0  0  0  0  0  0
   -8.6906   -0.5645   -0.0000 C   0  0  0  0  0  0  0  0  0  0  0  0
  -10.2194    1.6346   -0.0000 C   0  0  0  0  0  0  0  0  0  0  0  0
   -9.7725   -1.5876   -0.0000 O   0  0  0  0  0  0  0  0  0  0  0  0
  -11.5013    0.8585   -0.0000 O   0  0  0  0  0  0  0  0  0  0  0  0
  1  2  1  0  0  0  0
  2  3  2  0  0  0  0
  2  4  1  0  0  0  0
  3  5  1  0  0  0  0
  4  6  1  0  0  0  0
  4  7  2  0  0  0  0
  5  8  2  0  0  0  0
  6  9  2  0  0  0  0
  7 10  1  0  0  0  0
 11 10  1  6  0  0  0
 11 12  1  0  0  0  0
 11 13  1  0  0  0  0
 12 14  1  0  0  0  0
 13 15  1  0  0  0  0
 14 16  1  6  0  0  0
 15 17  1  1  0  0  0
 16 18  1  0  0  0  0
  7  8  1  0  0  0  0
  9 10  1  0  0  0  0
 14 15  1  0  0  0  0
M  END
>  <MolRegNo>
386745

>  <m>
>

>  <Value>
3.0e5

>  <Unit>
nM

>  <Type>
IC50

>  <Ligand Efficiency>


>  <Binding Efficiency>


>  <Surface Efficiency>


>  <Assay Index>
287336

>  <Assay Category>


>  <Assay Organism>
SARS coronavirus

>  <Target ID>
100499

>  <Target Name>
SARS coronavirus

>  <Target Organism>
SARS coronavirus

>  <Target Description>
Target is a complete organism

>  <Sequence Accession>


>  <Reference>
Bioorg. Med. Chem. Lett. 17 (9), 2470-2473 (2007)

>  <Pubmed ID>
17336519

>  <DOI>
10.1016/j.bmcl.2007.02.026

>  <InChI-Key>
PGEULCIODBNODW-XVMARJQXSA-N

>  <Molecular Formula>
C10H11N4O3Cl

>  <Monoisotopic Mass>
270.051968

>  <Druglikeness>
0.85954

$$$$
Compound 411
Actelion Java MolfileCreator 1.0

 28 32  0  0  0  0  0  0  0  0999 V2000
    0.0000   -0.0000   -0.0000 S   0  0  0  0  0  0  0  0  0  0  0  0
   -1.2131   -0.8682   -0.0000 C   0  0  0  0  0  0  0  0  0  0  0  0
   -0.4757    1.4391   -0.0000 C   0  0  0  0  0  0  0  0  0  0  0  0
   -2.4500    0.0119   -0.0000 N   0  0  0  0  0  0  0  0  0  0  0  0
   -1.2250   -2.3549   -0.0000 C   0  0  0  0  0  0  0  0  0  0  0  0
   -1.9862    1.4510   -0.0000 C   0  0  0  0  0  0  0  0  0  0  0  0
   -3.8891   -0.4519   -0.0000 C   0  0  0  0  0  0  0  0  0  0  0  0
   -2.5333   -3.0923   -0.0000 C   0  0  0  0  0  0  0  0  0  0  0  0
    0.0595   -3.0923   -0.0000 C   0  0  0  0  0  0  0  0  0  0  0  0
   -2.8782    2.6760   -0.0000 O   0  0  0  0  0  0  0  0  0  0  0  0
   -5.0190    0.5590   -0.0000 N   0  0  0  0  0  0  0  0  0  0  0  0
   -4.1983   -1.9029   -0.0000 C   0  0  0  0  0  0  0  0  0  0  0  0
   -2.5452   -4.5908   -0.0000 C   0  0  0  0  0  0  0  0  0  0  0  0
    0.0476   -4.5908   -0.0000 C   0  0  0  0  0  0  0  0  0  0  0  0
   -6.4581    0.0951   -0.0000 C   0  0  0  0  0  0  0  0  0  0  0  0
   -5.6255   -2.3668   -0.0000 C   0  0  0  0  0  0  0  0  0  0  0  0
   -1.2607   -5.3282   -0.0000 C   0  0  0  0  0  0  0  0  0  0  0  0
   -6.7792   -1.3677   -0.0000 C   0  0  0  0  0  0  0  0  0  0  0  0
   -1.2726   -6.8149   -0.0000 C   0  0  0  0  0  0  0  0  0  0  0  0
   -2.5809   -7.5523   -0.0000 C   0  0  0  0  0  0  0  0  0  0  0  0
    0.0119   -7.5404   -0.0000 C   0  0  0  0  0  0  0  0  0  0  0  0
   -2.5927   -9.0389   -0.0000 C   0  0  0  0  0  0  0  0  0  0  0  0
   -3.8891   -6.7911   -0.0000 C   0  0  0  0  0  0  0  0  0  0  0  0
    0.0000   -9.0270   -0.0000 C   0  0  0  0  0  0  0  0  0  0  0  0
   -1.3083   -9.7763   -0.0000 N   0  0  0  0  0  0  0  0  0  0  0  0
   -3.8891   -9.7763   -0.0000 C   0  0  0  0  0  0  0  0  0  0  0  0
   -5.1974   -7.5285   -0.0000 C   0  0  0  0  0  0  0  0  0  0  0  0
   -5.1974   -9.0270   -0.0000 C   0  0  0  0  0  0  0  0  0  0  0  0
  1  2  1  0  0  0  0
  1  3  1  0  0  0  0
  2  4  1  0  0  0  0
  2  5  1  0  0  0  0
  3  6  1  0  0  0  0
  4  7  1  0  0  0  0
  5  8  2  0  0  0  0
  5  9  1  0  0  0  0
  6 10  2  0  0  0  0
  7 11  2  0  0  0  0
  7 12  1  0  0  0  0
  8 13  1  0  0  0  0
  9 14  2  0  0  0  0
 11 15  1  0  0  0  0
 12 16  2  0  0  0  0
 13 17  2  0  0  0  0
 15 18  2  0  0  0  0
 17 19  1  0  0  0  0
 19 20  1  0  0  0  0
 19 21  2  0  0  0  0
 20 22  1  0  0  0  0
 20 23  2  0  0  0  0
 21 24  1  0  0  0  0
 22 25  1  0  0  0  0
 22 26  2  0  0  0  0
 23 27  1  0  0  0  0
 26 28  1  0  0  0  0
  4  6  1  0  0  0  0
 14 17  1  0  0  0  0
 16 18  1  0  0  0  0
 24 25  2  0  0  0  0
 27 28  2  0  0  0  0
M  END
>  <MolRegNo>
452790

>  <m>
<=

>  <Value>
50

>  <Unit>
%

>  <Type>
Inhibition

>  <Ligand Efficiency>


>  <Binding Efficiency>


>  <Surface Efficiency>


>  <Assay Index>
406904

>  <Assay Category>


>  <Assay Organism>
SARS coronavirus

>  <Target ID>
101075

>  <Target Name>
Replicase polyprotein 1ab

>  <Target Organism>
SARS coronavirus

>  <Target Description>
Target is a single protein chain

>  <Sequence Accession>
P0C6X7

>  <Reference>
Bioorg. Med. Chem. Lett. 18 (23), 6110-6114 (2008)

>  <Pubmed ID>
18947995

>  <DOI>
10.1016/j.bmcl.2008.10.023

>  <InChI-Key>
PJGKCVCWFJVGPB-UHFFFAOYSA-N

>  <Molecular Formula>
C23H17N3OS

>  <Monoisotopic Mass>
383.109232

>  <Druglikeness>
2.8124

$$$$
Compound 412
Actelion Java MolfileCreator 1.0

 22 24  0  0  0  0  0  0  0  0999 V2000
    0.0000   -0.0000   -0.0000 O   0  0  0  0  0  0  0  0  0  0  0  0
   -1.5077    0.0118   -0.0000 C   0  0  0  0  0  0  0  0  0  0  0  0
   -2.4029   -1.1897   -0.0000 N   0  0  0  0  0  0  0  0  0  0  0  0
   -2.4029    1.2368   -0.0000 C   0  0  0  0  0  0  0  0  0  0  0  0
   -3.8400   -0.7185   -0.0000 C   0  0  0  0  0  0  0  0  0  0  0  0
   -1.9553   -2.6032   -0.0000 C   0  0  0  0  0  0  0  0  0  0  0  0
   -1.9553    2.6739   -0.0000 O   0  0  0  0  0  0  0  0  0  0  0  0
   -3.8400    0.7774   -0.0000 C   0  0  0  0  0  0  0  0  0  0  0  0
   -5.1475   -1.4606   -0.0000 C   0  0  0  0  0  0  0  0  0  0  0  0
   -2.9683   -3.6986   -0.0000 C   0  0  0  0  0  0  0  0  0  0  0  0
   -5.1475    1.5313   -0.0000 C   0  0  0  0  0  0  0  0  0  0  0  0
   -6.4549   -0.7067   -0.0000 C   0  0  0  0  0  0  0  0  0  0  0  0
   -4.4643   -3.5337   -0.0000 C   0  0  0  0  0  0  0  0  0  0  0  0
   -2.6621   -5.1475   -0.0000 C   0  0  0  0  0  0  0  0  0  0  0  0
   -6.4549    0.8010   -0.0000 C   0  0  0  0  0  0  0  0  0  0  0  0
   -5.0768   -4.8765   -0.0000 O   0  0  0  0  0  0  0  0  0  0  0  0
   -5.2181   -2.2262   -0.0000 C   0  0  0  0  0  0  0  0  0  0  0  0
   -3.9696   -5.8778   -0.0000 N   0  0  0  0  0  0  0  0  0  0  0  0
   -1.3193   -5.7364   -0.0000 C   0  0  0  0  0  0  0  0  0  0  0  0
   -7.7624    1.5548   -0.0000 C   0  0  0  0  0  0  0  0  0  0  0  0
   -7.7742    3.0626   -0.0000 O   0  0  0  0  0  0  0  0  0  0  0  0
   -9.0817    0.8245   -0.0000 N   0  0  0  0  0  0  0  0  0  0  0  0
  1  2  2  0  0  0  0
  2  3  1  0  0  0  0
  2  4  1  0  0  0  0
  3  5  1  0  0  0  0
  3  6  1  0  0  0  0
  4  7  2  0  0  0  0
  4  8  1  0  0  0  0
  5  9  1  0  0  0  0
  6 10  1  0  0  0  0
  8 11  1  0  0  0  0
  9 12  2  0  0  0  0
 10 13  2  0  0  0  0
 10 14  1  0  0  0  0
 11 15  2  0  0  0  0
 13 16  1  0  0  0  0
 13 17  1  0  0  0  0
 14 18  2  0  0  0  0
 14 19  1  0  0  0  0
 15 20  1  0  0  0  0
 20 21  2  0  0  0  0
 20 22  1  0  0  0  0
  5  8  2  0  0  0  0
 12 15  1  0  0  0  0
 16 18  1  0  0  0  0
M  END
>  <MolRegNo>
316563

>  <m>
=

>  <Value>
25

>  <Unit>
%

>  <Type>
Inhibition

>  <Ligand Efficiency>


>  <Binding Efficiency>


>  <Surface Efficiency>


>  <Assay Index>
240686

>  <Assay Category>


>  <Assay Organism>
SARS coronavirus

>  <Target ID>
20012

>  <Target Name>
SARS coronavirus 3C-like proteinase

>  <Target Organism>
SARS coronavirus

>  <Target Description>
Target is a single protein chain

>  <Sequence Accession>
P0C6U8

>  <Reference>
Bioorg. Med. Chem. Lett. 15 (12), 3058-3062 (2005)

>  <Pubmed ID>
15896959

>  <DOI>
10.1016/j.bmcl.2005.04.027

>  <InChI-Key>
PJTDOJRJIDXENE-UHFFFAOYSA-N

>  <Molecular Formula>
C15H13N3O4

>  <Monoisotopic Mass>
299.090607

>  <Druglikeness>
0.14671

$$$$
Compound 413
Actelion Java MolfileCreator 1.0

 85 85  0  0  0  0  0  0  0  0999 V2000
    0.0000   -0.0000   -0.0000 O   0  0  0  0  0  0  0  0  0  0  0  0
    1.3786   -0.5538   -0.0000 C   0  0  0  0  0  0  0  0  0  0  0  0
    0.6598   -1.8617   -0.0000 N   0  0  0  0  0  0  0  0  0  0  0  0
    2.8632   -0.4949   -0.0000 C   0  0  0  0  0  0  0  0  0  0  0  0
   -0.8484   -1.8970   -0.0000 C   0  0  0  0  0  0  0  0  0  0  0  0
    1.4375   -3.1225   -0.0000 C   0  0  0  0  0  0  0  0  0  0  0  0
    3.5584    0.8366   -0.0000 N   0  0  0  0  0  0  0  0  0  0  0  0
    2.0620    0.7895   -0.0000 C   0  0  0  0  0  0  0  0  0  0  0  0
   -1.5671   -3.2049   -0.0000 C   0  0  0  0  0  0  0  0  0  0  0  0
   -1.6496   -0.6127   -0.0000 C   0  0  0  0  0  0  0  0  0  0  0  0
    5.0431    0.8955   -0.0000 C   0  0  0  0  0  0  0  0  0  0  0  0
    2.7572    2.1209   -0.0000 C   0  0  0  0  0  0  0  0  0  0  0  0
    0.5538    0.7541   -0.0000 C   0  0  0  0  0  0  0  0  0  0  0  0
    1.8499    2.2859   -0.0000 C   0  0  0  0  0  0  0  0  0  0  0  0
   -0.7895   -4.4657   -0.0000 O   0  0  0  0  0  0  0  0  0  0  0  0
   -3.0753   -3.2403   -0.0000 N   0  0  0  0  0  0  0  0  0  0  0  0
   -3.1578   -0.6481   -0.0000 O   0  0  0  0  0  0  0  0  0  0  0  0
   -0.9544    0.7188   -0.0000 C   0  0  0  0  0  0  0  0  0  0  0  0
    5.7383    2.2270   -0.0000 O   0  0  0  0  0  0  0  0  0  0  0  0
    5.8207   -0.3653   -0.0000 C   0  0  0  0  0  0  0  0  0  0  0  0
   -3.7941   -4.5482   -0.0000 C   0  0  0  0  0  0  0  0  0  0  0  0
   -1.7556    2.0031   -0.0000 C   0  0  0  0  0  0  0  0  0  0  0  0
    0.2121    1.6496   -0.0000 C   0  0  0  0  0  0  0  0  0  0  0  0
    7.3054   -0.3064   -0.0000 N   0  0  0  0  0  0  0  0  0  0  0  0
    6.5159    0.9662   -0.0000 C   0  0  0  0  0  0  0  0  0  0  0  0
   -5.3023   -4.5835   -0.0000 C   0  0  0  0  0  0  0  0  0  0  0  0
   -4.5953   -3.2639   -0.0000 C   0  0  0  0  0  0  0  0  0  0  0  0
   -3.2639    1.9677   -0.0000 C   0  0  0  0  0  0  0  0  0  0  0  0
    8.0830   -1.5671   -0.0000 C   0  0  0  0  0  0  0  0  0  0  0  0
    8.6368    0.3535   -0.0000 C   0  0  0  0  0  0  0  0  0  0  0  0
    8.0006    1.0251   -0.0000 C   0  0  0  0  0  0  0  0  0  0  0  0
   -6.1035   -3.2992   -0.0000 O   0  0  0  0  0  0  0  0  0  0  0  0
   -6.0210   -5.8914   -0.0000 N   0  0  0  0  0  0  0  0  0  0  0  0
   -3.9001   -1.9324   -0.0000 C   0  0  0  0  0  0  0  0  0  0  0  0
   -4.0651    3.2521   -0.0000 C   0  0  0  0  0  0  0  0  0  0  0  0
    9.5677   -1.5082   -0.0000 O   0  0  0  0  0  0  0  0  0  0  0  0
    7.3643   -2.8750   -0.0000 C   0  0  0  0  0  0  0  0  0  0  0  0
    8.6958    2.3566   -0.0000 C   0  0  0  0  0  0  0  0  0  0  0  0
    9.3792    0.4713   -0.0000 C   0  0  0  0  0  0  0  0  0  0  0  0
   -7.5292   -5.9268   -0.0000 C   0  0  0  0  0  0  0  0  0  0  0  0
   -5.2434   -7.1522   -0.0000 C   0  0  0  0  0  0  0  0  0  0  0  0
   -5.5733    3.2167   -0.0000 C   0  0  0  0  0  0  0  0  0  0  0  0
    5.8561   -2.9104   -0.0000 N   0  0  0  0  0  0  0  0  0  0  0  0
    8.1420   -4.1358   -0.0000 C   0  0  0  0  0  0  0  0  0  0  0  0
   -8.3776   -7.3289   -0.0000 C   0  0  0  0  0  0  0  0  0  0  0  0
    5.1373   -4.2183   -0.0000 C   0  0  0  0  0  0  0  0  0  0  0  0
    5.0548   -1.6260   -0.0000 C   0  0  0  0  0  0  0  0  0  0  0  0
    9.6266   -4.0769   -0.0000 C   0  0  0  0  0  0  0  0  0  0  0  0
   -7.4350   -8.4719   -0.0000 O   0  0  0  0  0  0  0  0  0  0  0  0
   -9.8033   -7.8238   -0.0000 N   0  0  0  0  0  0  0  0  0  0  0  0
    5.9150   -5.4790   -0.0000 O   0  0  0  0  0  0  0  0  0  0  0  0
    3.6291   -4.2536   -0.0000 C   0  0  0  0  0  0  0  0  0  0  0  0
   10.3218   -2.7454   -0.0000 C   0  0  0  0  0  0  0  0  0  0  0  0
   10.4043   -5.3376   -0.0000 C   0  0  0  0  0  0  0  0  0  0  0  0
   -9.7680   -9.3085   -0.0000 C   0  0  0  0  0  0  0  0  0  0  0  0
  -11.0523   -6.9755   -0.0000 C   0  0  0  0  0  0  0  0  0  0  0  0
    2.9104   -5.5615   -0.0000 N   0  0  0  0  0  0  0  0  0  0  0  0
    2.8279   -2.9693   -0.0000 C   0  0  0  0  0  0  0  0  0  0  0  0
   -8.3423   -9.7091   -0.0000 C   0  0  0  0  0  0  0  0  0  0  0  0
  -10.9581  -10.2157   -0.0000 C   0  0  0  0  0  0  0  0  0  0  0  0
    1.4022   -5.5969   -0.0000 C   0  0  0  0  0  0  0  0  0  0  0  0
   -7.1404   -8.8136   -0.0000 O   0  0  0  0  0  0  0  0  0  0  0  0
   -7.4350  -11.0523   -0.0000 N   0  0  0  0  0  0  0  0  0  0  0  0
  -12.3602   -9.6384   -0.0000 C   0  0  0  0  0  0  0  0  0  0  0  0
    0.6009   -4.3125   -0.0000 O   0  0  0  0  0  0  0  0  0  0  0  0
    0.6834   -6.9048   -0.0000 C   0  0  0  0  0  0  0  0  0  0  0  0
   -5.9503  -10.9934   -0.0000 C   0  0  0  0  0  0  0  0  0  0  0  0
  -13.5503  -10.5457   -0.0000 C   0  0  0  0  0  0  0  0  0  0  0  0
  -12.5723   -8.1420   -0.0000 C   0  0  0  0  0  0  0  0  0  0  0  0
   -0.8248   -6.9401   -0.0000 N   0  0  0  0  0  0  0  0  0  0  0  0
    1.4611   -8.1655   -0.0000 C   0  0  0  0  0  0  0  0  0  0  0  0
   -5.2552   -9.6619   -0.0000 C   0  0  0  0  0  0  0  0  0  0  0  0
   -5.1727  -12.2542   -0.0000 C   0  0  0  0  0  0  0  0  0  0  0  0
   -1.5436   -8.2480   -0.0000 C   0  0  0  0  0  0  0  0  0  0  0  0
   -6.0564   -8.3776   -0.0000 O   0  0  0  0  0  0  0  0  0  0  0  0
   -3.7705   -9.6030   -0.0000 N   0  0  0  0  0  0  0  0  0  0  0  0
   -3.6880  -12.1953   -0.0000 C   0  0  0  0  0  0  0  0  0  0  0  0
   -5.8914  -13.5621   -0.0000 C   0  0  0  0  0  0  0  0  0  0  0  0
   -0.1650   -8.8018   -0.0000 O   0  0  0  0  0  0  0  0  0  0  0  0
   -3.0518   -8.2834   -0.0000 C   0  0  0  0  0  0  0  0  0  0  0  0
   -2.9928  -10.8638   -0.0000 C   0  0  0  0  0  0  0  0  0  0  0  0
   -2.2741   -9.5441   -0.0000 C   0  0  0  0  0  0  0  0  0  0  0  0
   -0.7895   -9.4852   -0.0000 C   0  0  0  0  0  0  0  0  0  0  0  0
    0.5420   -8.8254   -0.0000 C   0  0  0  0  0  0  0  0  0  0  0  0
   -0.0118  -10.7460   -0.0000 C   0  0  0  0  0  0  0  0  0  0  0  0
  1  2  2  0  0  0  0
  2  3  1  0  0  0  0
  2  4  1  0  0  0  0
  5  3  1  6  0  0  0
  3  6  1  0  0  0  0
  4  7  1  0  0  0  0
  4  8  1  1  0  0  0
  5  9  1  0  0  0  0
  5 10  1  0  0  0  0
  7 11  1  0  0  0  0
  7 12  1  0  0  0  0
  8 13  1  0  0  0  0
  8 14  1  0  0  0  0
  9 15  2  0  0  0  0
  9 16  1  0  0  0  0
 10 17  1  6  0  0  0
 10 18  1  0  0  0  0
 11 19  2  0  0  0  0
 11 20  1  0  0  0  0
 16 21  1  0  0  0  0
 18 22  1  0  0  0  0
 18 23  1  1  0  0  0
 20 24  1  0  0  0  0
 20 25  1  1  0  0  0
 21 26  1  0  0  0  0
 21 27  1  1  0  0  0
 22 28  1  0  0  0  0
 24 29  1  0  0  0  0
 24 30  1  0  0  0  0
 25 31  1  0  0  0  0
 26 32  2  0  0  0  0
 26 33  1  0  0  0  0
 27 34  1  0  0  0  0
 28 35  2  0  0  0  0
 29 36  2  0  0  0  0
 29 37  1  0  0  0  0
 31 38  1  0  0  0  0
 31 39  1  0  0  0  0
 33 40  1  0  0  0  0
 33 41  1  0  0  0  0
 35 42  1  0  0  0  0
 37 43  1  0  0  0  0
 37 44  1  6  0  0  0
 40 45  1  0  0  0  0
 43 46  1  0  0  0  0
 43 47  1  0  0  0  0
 44 48  1  0  0  0  0
 45 49  2  0  0  0  0
 45 50  1  0  0  0  0
 46 51  2  0  0  0  0
 46 52  1  0  0  0  0
 48 53  1  0  0  0  0
 48 54  1  0  0  0  0
 50 55  1  0  0  0  0
 50 56  1  0  0  0  0
 52 57  1  0  0  0  0
 52 58  1  6  0  0  0
 55 59  1  0  0  0  0
 55 60  1  6  0  0  0
 57 61  1  0  0  0  0
 59 62  2  0  0  0  0
 59 63  1  0  0  0  0
 60 64  1  0  0  0  0
 61 65  2  0  0  0  0
 61 66  1  0  0  0  0
 63 67  1  0  0  0  0
 64 68  1  0  0  0  0
 64 69  1  0  0  0  0
 66 70  1  0  0  0  0
 66 71  1  6  0  0  0
 67 72  1  0  0  0  0
 67 73  1  6  0  0  0
 70 74  1  0  0  0  0
 72 75  2  0  0  0  0
 72 76  1  0  0  0  0
 73 77  1  0  0  0  0
 73 78  1  0  0  0  0
 74 79  2  0  0  0  0
 74 80  1  0  0  0  0
 76 81  1  0  0  0  0
 80 82  1  1  0  0  0
 82 83  1  0  0  0  0
 83 84  1  0  0  0  0
 83 85  1  0  0  0  0
 76 80  1  0  0  0  0
M  END
>  <MolRegNo>
72873

>  <m>
>

>  <Value>
8300

>  <Unit>
nM

>  <Type>
IC50

>  <Ligand Efficiency>


>  <Binding Efficiency>


>  <Surface Efficiency>


>  <Assay Index>
574748

>  <Assay Category>


>  <Assay Organism>
SARS coronavirus

>  <Target ID>
100499

>  <Target Name>
SARS coronavirus

>  <Target Organism>
SARS coronavirus

>  <Target Description>
Target is a complete organism

>  <Sequence Accession>


>  <Reference>
Antimicrob. Agents Chemother. 52 (4), 1302-1317 (2008)

>  <Pubmed ID>
18212100

>  <DOI>
10.1128/aac.01324-07

>  <InChI-Key>
PMATZTZNYRCHOR-YUZSLPGISA-N

>  <Molecular Formula>
C62H111N11O12

>  <Monoisotopic Mass>
1201.84137

>  <Druglikeness>
6.7856

$$$$
Compound 414
Actelion Java MolfileCreator 1.0

 22 24  0  0  0  0  0  0  0  0999 V2000
    0.0000   -0.0000   -0.0000 O   0  0  0  0  0  0  0  0  0  0  0  0
   -1.0754    0.6283   -0.0000 C   0  0  0  0  0  0  0  0  0  0  0  0
   -2.4165   -0.1329   -0.0000 N   0  0  0  0  0  0  0  0  0  0  0  0
   -1.0874    2.1749   -0.0000 C   0  0  0  0  0  0  0  0  0  0  0  0
   -2.4286   -1.6553   -0.0000 C   0  0  0  0  0  0  0  0  0  0  0  0
    0.2296    2.9603   -0.0000 C   0  0  0  0  0  0  0  0  0  0  0  0
   -2.4286    2.9482   -0.0000 C   0  0  0  0  0  0  0  0  0  0  0  0
   -3.7698   -2.4165   -0.0000 C   0  0  0  0  0  0  0  0  0  0  0  0
   -1.3774   -2.2595   -0.0000 C   0  0  0  0  0  0  0  0  0  0  0  0
    0.2175    4.5069   -0.0000 C   0  0  0  0  0  0  0  0  0  0  0  0
    1.2808    2.3682   -0.0000 C   0  0  0  0  0  0  0  0  0  0  0  0
   -2.4407    4.4948   -0.0000 C   0  0  0  0  0  0  0  0  0  0  0  0
   -5.1110   -1.6432   -0.0000 C   0  0  0  0  0  0  0  0  0  0  0  0
   -3.7819   -3.9390   -0.0000 C   0  0  0  0  0  0  0  0  0  0  0  0
   -1.1237    5.2801   -0.0000 C   0  0  0  0  0  0  0  0  0  0  0  0
   -6.4522   -2.3924   -0.0000 C   0  0  0  0  0  0  0  0  0  0  0  0
   -5.1231   -4.6881   -0.0000 C   0  0  0  0  0  0  0  0  0  0  0  0
   -6.4643   -3.9148   -0.0000 C   0  0  0  0  0  0  0  0  0  0  0  0
   -7.7933   -1.6191   -0.0000 C   0  0  0  0  0  0  0  0  0  0  0  0
   -7.8054   -4.6639   -0.0000 C   0  0  0  0  0  0  0  0  0  0  0  0
   -9.1466   -2.3682   -0.0000 C   0  0  0  0  0  0  0  0  0  0  0  0
   -9.1587   -3.8906   -0.0000 C   0  0  0  0  0  0  0  0  0  0  0  0
  1  2  2  0  0  0  0
  2  3  1  0  0  0  0
  2  4  1  0  0  0  0
  5  3  1  1  0  0  0
  4  6  2  0  0  0  0
  4  7  1  0  0  0  0
  5  8  1  0  0  0  0
  5  9  1  0  0  0  0
  6 10  1  0  0  0  0
  6 11  1  0  0  0  0
  7 12  2  0  0  0  0
  8 13  2  0  0  0  0
  8 14  1  0  0  0  0
 10 15  2  0  0  0  0
 13 16  1  0  0  0  0
 14 17  2  0  0  0  0
 16 18  1  0  0  0  0
 16 19  2  0  0  0  0
 18 20  2  0  0  0  0
 19 21  1  0  0  0  0
 20 22  1  0  0  0  0
 12 15  1  0  0  0  0
 17 18  1  0  0  0  0
 21 22  2  0  0  0  0
M  END
>  <MolRegNo>
562162

>  <m>


>  <Value>
0

>  <Unit>


>  <Type>
EC50

>  <Ligand Efficiency>


>  <Binding Efficiency>


>  <Surface Efficiency>


>  <Assay Index>
425462

>  <Assay Category>


>  <Assay Organism>
SARS coronavirus

>  <Target ID>
100499

>  <Target Name>
SARS coronavirus

>  <Target Organism>
SARS coronavirus

>  <Target Description>
Target is a complete organism

>  <Sequence Accession>


>  <Reference>
J. Med. Chem. 52 (16), 5228-5240 (2009)

>  <Pubmed ID>
19645480

>  <DOI>
10.1021/jm900611t

>  <InChI-Key>
PNLGQULYJADVGW-HNNXBMFYSA-N

>  <Molecular Formula>
C20H19NO

>  <Monoisotopic Mass>
289.146664

>  <Druglikeness>
2.4802

$$$$
Compound 415
Actelion Java MolfileCreator 1.0

 22 24  0  0  0  0  0  0  0  0999 V2000
    0.0000   -0.0000   -0.0000 O   0  0  0  0  0  0  0  0  0  0  0  0
   -1.3061   -0.7413   -0.0000 C   0  0  0  0  0  0  0  0  0  0  0  0
   -2.6121    0.0235   -0.0000 N   0  0  0  0  0  0  0  0  0  0  0  0
   -1.3178   -2.2238   -0.0000 C   0  0  0  0  0  0  0  0  0  0  0  0
   -2.6239    1.5296   -0.0000 C   0  0  0  0  0  0  0  0  0  0  0  0
   -2.6239   -2.9651   -0.0000 C   0  0  0  0  0  0  0  0  0  0  0  0
   -0.0353   -2.9651   -0.0000 C   0  0  0  0  0  0  0  0  0  0  0  0
   -3.9299    2.2944   -0.0000 C   0  0  0  0  0  0  0  0  0  0  0  0
   -1.3414    2.2944   -0.0000 C   0  0  0  0  0  0  0  0  0  0  0  0
   -2.6356   -4.4476   -0.0000 C   0  0  0  0  0  0  0  0  0  0  0  0
   -3.9299   -2.2003   -0.0000 C   0  0  0  0  0  0  0  0  0  0  0  0
   -0.0471   -4.4476   -0.0000 C   0  0  0  0  0  0  0  0  0  0  0  0
   -5.2360    1.5531   -0.0000 C   0  0  0  0  0  0  0  0  0  0  0  0
   -3.9417    3.8005   -0.0000 C   0  0  0  0  0  0  0  0  0  0  0  0
   -1.3531   -5.1771   -0.0000 C   0  0  0  0  0  0  0  0  0  0  0  0
   -6.5420    2.3179   -0.0000 C   0  0  0  0  0  0  0  0  0  0  0  0
   -5.2477    4.5535   -0.0000 C   0  0  0  0  0  0  0  0  0  0  0  0
   -6.5538    3.8240   -0.0000 C   0  0  0  0  0  0  0  0  0  0  0  0
   -7.8481    1.5767   -0.0000 C   0  0  0  0  0  0  0  0  0  0  0  0
   -7.8598    4.5771   -0.0000 C   0  0  0  0  0  0  0  0  0  0  0  0
   -9.1541    2.3415   -0.0000 C   0  0  0  0  0  0  0  0  0  0  0  0
   -9.1659    3.8476   -0.0000 C   0  0  0  0  0  0  0  0  0  0  0  0
  1  2  2  0  0  0  0
  2  3  1  0  0  0  0
  2  4  1  0  0  0  0
  3  5  1  0  0  0  0
  4  6  2  0  0  0  0
  4  7  1  0  0  0  0
  5  8  1  0  0  0  0
  5  9  1  0  0  0  0
  6 10  1  0  0  0  0
  6 11  1  0  0  0  0
  7 12  2  0  0  0  0
  8 13  2  0  0  0  0
  8 14  1  0  0  0  0
 10 15  2  0  0  0  0
 13 16  1  0  0  0  0
 14 17  2  0  0  0  0
 16 18  1  0  0  0  0
 16 19  2  0  0  0  0
 18 20  2  0  0  0  0
 19 21  1  0  0  0  0
 20 22  1  0  0  0  0
 12 15  1  0  0  0  0
 17 18  1  0  0  0  0
 21 22  2  0  0  0  0
M  END
>  <MolRegNo>
556836

>  <m>


>  <Value>
0

>  <Unit>


>  <Type>
EC50

>  <Ligand Efficiency>


>  <Binding Efficiency>


>  <Surface Efficiency>


>  <Assay Index>
425462

>  <Assay Category>


>  <Assay Organism>
SARS coronavirus

>  <Target ID>
100499

>  <Target Name>
SARS coronavirus

>  <Target Organism>
SARS coronavirus

>  <Target Description>
Target is a complete organism

>  <Sequence Accession>


>  <Reference>
J. Med. Chem. 52 (16), 5228-5240 (2009)

>  <Pubmed ID>
19645480

>  <DOI>
10.1021/jm900611t

>  <InChI-Key>
PNLGQULYJADVGW-UHFFFAOYSA-N

>  <Molecular Formula>
C20H19NO

>  <Monoisotopic Mass>
289.146664

>  <Druglikeness>
2.4802

$$$$
Compound 416
Actelion Java MolfileCreator 1.0

 30 33  0  0  0  0  0  0  0  0999 V2000
    0.0000   -0.0000   -0.0000 O   0  0  0  0  0  0  0  0  0  0  0  0
   -1.0686   -0.6004   -0.0000 C   0  0  0  0  0  0  0  0  0  0  0  0
   -1.0806   -2.1133   -0.0000 N   0  0  0  0  0  0  0  0  0  0  0  0
   -2.4014    0.1681   -0.0000 C   0  0  0  0  0  0  0  0  0  0  0  0
    0.2281   -2.8577   -0.0000 C   0  0  0  0  0  0  0  0  0  0  0  0
   -2.4134    1.7050   -0.0000 C   0  0  0  0  0  0  0  0  0  0  0  0
   -3.7342   -0.5883   -0.0000 C   0  0  0  0  0  0  0  0  0  0  0  0
    0.2161   -4.3706   -0.0000 C   0  0  0  0  0  0  0  0  0  0  0  0
   -3.7462    2.4735   -0.0000 C   0  0  0  0  0  0  0  0  0  0  0  0
   -5.0670    0.1801   -0.0000 C   0  0  0  0  0  0  0  0  0  0  0  0
    1.5249   -5.1150   -0.0000 C   0  0  0  0  0  0  0  0  0  0  0  0
   -1.1167   -5.1150   -0.0000 C   0  0  0  0  0  0  0  0  0  0  0  0
   -5.0790    1.7170   -0.0000 N   0  0  0  0  0  0  0  0  0  0  0  0
    2.8337   -4.3466   -0.0000 O   0  0  0  0  0  0  0  0  0  0  0  0
    1.5129   -6.6279   -0.0000 C   0  0  0  0  0  0  0  0  0  0  0  0
   -1.1287   -6.6279   -0.0000 C   0  0  0  0  0  0  0  0  0  0  0  0
   -6.4118    2.4855   -0.0000 C   0  0  0  0  0  0  0  0  0  0  0  0
    3.8783   -4.9469   -0.0000 C   0  0  0  0  0  0  0  0  0  0  0  0
    0.1801   -7.3724   -0.0000 C   0  0  0  0  0  0  0  0  0  0  0  0
   -6.4238    4.0224   -0.0000 C   0  0  0  0  0  0  0  0  0  0  0  0
   -7.4804    1.8851   -0.0000 C   0  0  0  0  0  0  0  0  0  0  0  0
   -7.7566    4.7908   -0.0000 C   0  0  0  0  0  0  0  0  0  0  0  0
   -5.1150    4.7908   -0.0000 C   0  0  0  0  0  0  0  0  0  0  0  0
   -7.7686    6.3278   -0.0000 C   0  0  0  0  0  0  0  0  0  0  0  0
   -9.0894    4.0464   -0.0000 C   0  0  0  0  0  0  0  0  0  0  0  0
   -5.1270    6.3278   -0.0000 C   0  0  0  0  0  0  0  0  0  0  0  0
   -6.4598    7.0962   -0.0000 C   0  0  0  0  0  0  0  0  0  0  0  0
   -9.1014    7.0962   -0.0000 C   0  0  0  0  0  0  0  0  0  0  0  0
  -10.4342    4.8149   -0.0000 C   0  0  0  0  0  0  0  0  0  0  0  0
  -10.4462    6.3518   -0.0000 C   0  0  0  0  0  0  0  0  0  0  0  0
  1  2  2  0  0  0  0
  2  3  1  0  0  0  0
  2  4  1  0  0  0  0
  3  5  1  0  0  0  0
  4  6  1  0  0  0  0
  4  7  1  0  0  0  0
  5  8  1  0  0  0  0
  6  9  1  0  0  0  0
  7 10  1  0  0  0  0
  8 11  2  0  0  0  0
  8 12  1  0  0  0  0
  9 13  1  0  0  0  0
 11 14  1  0  0  0  0
 11 15  1  0  0  0  0
 12 16  2  0  0  0  0
 17 13  1  1  0  0  0
 14 18  1  0  0  0  0
 15 19  2  0  0  0  0
 17 20  1  0  0  0  0
 17 21  1  0  0  0  0
 20 22  1  0  0  0  0
 20 23  2  0  0  0  0
 22 24  1  0  0  0  0
 22 25  2  0  0  0  0
 23 26  1  0  0  0  0
 24 27  1  0  0  0  0
 24 28  2  0  0  0  0
 25 29  1  0  0  0  0
 28 30  1  0  0  0  0
 10 13  1  0  0  0  0
 16 19  1  0  0  0  0
 26 27  2  0  0  0  0
 29 30  2  0  0  0  0
M  END
>  <MolRegNo>
651059

>  <m>
=

>  <Value>
11600

>  <Unit>
nM

>  <Type>
EC50

>  <Ligand Efficiency>


>  <Binding Efficiency>


>  <Surface Efficiency>


>  <Assay Index>
486973

>  <Assay Category>


>  <Assay Organism>
SARS coronavirus

>  <Target ID>
100499

>  <Target Name>
SARS coronavirus

>  <Target Organism>
SARS coronavirus

>  <Target Description>
Target is a complete organism

>  <Sequence Accession>


>  <Reference>
J. Med. Chem. 53 (13), 4968-4979 (2010)

>  <Pubmed ID>
20527968

>  <DOI>
10.1021/jm1004489

>  <InChI-Key>
PNSZKQRTBQGHET-IBGZPJMESA-N

>  <Molecular Formula>
C26H30N2O2

>  <Monoisotopic Mass>
402.230728

>  <Druglikeness>
6.7431

$$$$
Compound 417
Actelion Java MolfileCreator 1.0

 35 36  0  0  1  0  0  0  0  0999 V2000
    0.0000   -0.0000   -0.0000 O   0  0  0  0  0  0  0  0  0  0  0  0
   -0.0475    1.5203   -0.0000 C   0  0  0  0  0  0  0  0  0  0  0  0
    1.2234    2.3161   -0.0000 O   0  0  0  0  0  0  0  0  0  0  0  0
   -1.3778    2.2567   -0.0000 N   0  0  0  0  0  0  0  0  0  0  0  0
    2.5299    1.6034   -0.0000 C   0  0  0  0  0  0  0  0  0  0  0  0
   -2.6724    1.4965   -0.0000 C   0  0  0  0  0  0  0  0  0  0  0  0
    3.8126    1.0096   -0.0000 C   0  0  0  0  0  0  0  0  0  0  0  0
    3.2544    2.9218   -0.0000 C   0  0  0  0  0  0  0  0  0  0  0  0
    1.7935    0.2969   -0.0000 C   0  0  0  0  0  0  0  0  0  0  0  0
   -2.6486   -0.0000   -0.0000 C   0  0  0  0  0  0  0  0  0  0  0  0
   -4.0027    2.2329   -0.0000 C   0  0  0  0  0  0  0  0  0  0  0  0
   -1.3421   -0.7126   -0.0000 O   0  0  0  0  0  0  0  0  0  0  0  0
   -3.9433   -0.7720   -0.0000 N   0  0  0  0  0  0  0  0  0  0  0  0
   -5.3092    1.4609   -0.0000 C   0  0  0  0  0  0  0  0  0  0  0  0
   -3.8007   -2.2567   -0.0000 C   0  0  0  0  0  0  0  0  0  0  0  0
   -5.4279   -0.4513   -0.0000 C   0  0  0  0  0  0  0  0  0  0  0  0
   -6.6394    2.1973   -0.0000 C   0  0  0  0  0  0  0  0  0  0  0  0
   -5.2854   -0.0356   -0.0000 C   0  0  0  0  0  0  0  0  0  0  0  0
   -2.5061   -2.9931   -0.0000 C   0  0  0  0  0  0  0  0  0  0  0  0
   -5.1904   -2.8624   -0.0000 C   0  0  0  0  0  0  0  0  0  0  0  0
   -6.1881   -1.7460   -0.0000 C   0  0  0  0  0  0  0  0  0  0  0  0
   -1.2115   -2.2211   -0.0000 O   0  0  0  0  0  0  0  0  0  0  0  0
   -2.5061   -4.4778   -0.0000 N   0  0  0  0  0  0  0  0  0  0  0  0
   -1.7697   -5.7724   -0.0000 C   0  0  0  0  0  0  0  0  0  0  0  0
   -3.2663   -5.7724   -0.0000 C   0  0  0  0  0  0  0  0  0  0  0  0
   -0.4751   -6.5088   -0.0000 C   0  0  0  0  0  0  0  0  0  0  0  0
   -4.5846   -6.5207   -0.0000 C   0  0  0  0  0  0  0  0  0  0  0  0
   -0.4751   -8.0053   -0.0000 O   0  0  0  0  0  0  0  0  0  0  0  0
    0.8077   -5.7367   -0.0000 O   0  0  0  0  0  0  0  0  0  0  0  0
   -5.9030   -5.7605   -0.0000 O   0  0  0  0  0  0  0  0  0  0  0  0
   -4.5965   -8.0172   -0.0000 O   0  0  0  0  0  0  0  0  0  0  0  0
    2.1023   -6.4731   -0.0000 C   0  0  0  0  0  0  0  0  0  0  0  0
   -5.9149   -8.7536   -0.0000 C   0  0  0  0  0  0  0  0  0  0  0  0
    3.3850   -5.7011   -0.0000 C   0  0  0  0  0  0  0  0  0  0  0  0
   -5.9268  -10.2501   -0.0000 C   0  0  0  0  0  0  0  0  0  0  0  0
  1  2  2  0  0  0  0
  2  3  1  0  0  0  0
  2  4  1  0  0  0  0
  3  5  1  0  0  0  0
  6  4  1  6  0  0  0
  5  7  1  0  0  0  0
  5  8  1  0  0  0  0
  5  9  1  0  0  0  0
  6 10  1  0  0  0  0
  6 11  1  0  0  0  0
 10 12  2  0  0  0  0
 10 13  1  0  0  0  0
 11 14  1  0  0  0  0
 13 15  1  0  0  0  0
 13 16  1  0  0  0  0
 14 17  1  0  0  0  0
 14 18  1  0  0  0  0
 15 19  1  6  0  0  0
 15 20  1  0  0  0  0
 16 21  1  0  0  0  0
 19 22  2  0  0  0  0
 19 23  1  0  0  0  0
 23 24  1  0  0  0  0
 23 25  1  0  0  0  0
 24 26  1  1  0  0  0
 25 27  1  6  0  0  0
 26 28  2  0  0  0  0
 26 29  1  0  0  0  0
 27 30  2  0  0  0  0
 27 31  1  0  0  0  0
 29 32  1  0  0  0  0
 31 33  1  0  0  0  0
 32 34  1  0  0  0  0
 33 35  1  0  0  0  0
 20 21  1  0  0  0  0
 24 25  1  0  0  0  0
M  END
>  <MolRegNo>
333510

>  <m>
=

>  <Value>
16

>  <Unit>
%

>  <Type>
Inhibition

>  <Ligand Efficiency>


>  <Binding Efficiency>


>  <Surface Efficiency>


>  <Assay Index>
254531

>  <Assay Category>


>  <Assay Organism>
SARS coronavirus

>  <Target ID>
20012

>  <Target Name>
SARS coronavirus 3C-like proteinase

>  <Target Organism>
SARS coronavirus

>  <Target Description>
Target is a single protein chain

>  <Sequence Accession>
P0C6U8

>  <Reference>
Bioorg. Med. Chem. Lett. 15 (24), 5365-5369 (2005)

>  <Pubmed ID>
16216498

>  <DOI>
10.1016/j.bmcl.2005.09.012

>  <InChI-Key>
POOZGSRLIRHTHZ-XSLAGTTESA-N

>  <Molecular Formula>
C24H39N3O8

>  <Monoisotopic Mass>
497.273717

>  <Druglikeness>
-57.483

$$$$
Compound 418
Actelion Java MolfileCreator 1.0

 21 23  0  0  0  0  0  0  0  0999 V2000
    0.0000   -0.0000   -0.0000 S   0  0  0  0  0  0  0  0  0  0  0  0
   -1.2127   -0.8679   -0.0000 C   0  0  0  0  0  0  0  0  0  0  0  0
   -0.4756    1.4385   -0.0000 C   0  0  0  0  0  0  0  0  0  0  0  0
   -2.4491    0.0119   -0.0000 N   0  0  0  0  0  0  0  0  0  0  0  0
   -1.2245   -2.3540   -0.0000 C   0  0  0  0  0  0  0  0  0  0  0  0
   -1.9854    1.4504   -0.0000 C   0  0  0  0  0  0  0  0  0  0  0  0
   -3.8876   -0.4518   -0.0000 C   0  0  0  0  0  0  0  0  0  0  0  0
   -2.5323   -3.0911   -0.0000 C   0  0  0  0  0  0  0  0  0  0  0  0
    0.0594   -3.0911   -0.0000 C   0  0  0  0  0  0  0  0  0  0  0  0
   -2.8771    2.6750   -0.0000 O   0  0  0  0  0  0  0  0  0  0  0  0
   -5.0171    0.5588   -0.0000 N   0  0  0  0  0  0  0  0  0  0  0  0
   -4.1968   -1.9022   -0.0000 C   0  0  0  0  0  0  0  0  0  0  0  0
   -2.5442   -4.5772   -0.0000 C   0  0  0  0  0  0  0  0  0  0  0  0
    0.0476   -4.5891   -0.0000 C   0  0  0  0  0  0  0  0  0  0  0  0
   -6.4556    0.0951   -0.0000 C   0  0  0  0  0  0  0  0  0  0  0  0
   -5.6234   -2.3659   -0.0000 C   0  0  0  0  0  0  0  0  0  0  0  0
   -1.2602   -5.3143   -0.0000 C   0  0  0  0  0  0  0  0  0  0  0  0
   -6.7766   -1.3672   -0.0000 C   0  0  0  0  0  0  0  0  0  0  0  0
   -1.2721   -6.8004   -0.0000 N   0  0  0  0  0  0  0  0  0  0  0  0
   -2.5799   -7.5375   -0.0000 C   0  0  0  0  0  0  0  0  0  0  0  0
    0.0119   -7.5375   -0.0000 C   0  0  0  0  0  0  0  0  0  0  0  0
  1  2  1  0  0  0  0
  1  3  1  0  0  0  0
  2  4  1  0  0  0  0
  2  5  1  0  0  0  0
  3  6  1  0  0  0  0
  4  7  1  0  0  0  0
  5  8  2  0  0  0  0
  5  9  1  0  0  0  0
  6 10  2  0  0  0  0
  7 11  2  0  0  0  0
  7 12  1  0  0  0  0
  8 13  1  0  0  0  0
  9 14  2  0  0  0  0
 11 15  1  0  0  0  0
 12 16  2  0  0  0  0
 13 17  2  0  0  0  0
 15 18  2  0  0  0  0
 17 19  1  0  0  0  0
 19 20  1  0  0  0  0
 19 21  1  0  0  0  0
  4  6  1  0  0  0  0
 14 17  1  0  0  0  0
 16 18  1  0  0  0  0
M  END
>  <MolRegNo>
452791

>  <m>
<=

>  <Value>
50

>  <Unit>
%

>  <Type>
Inhibition

>  <Ligand Efficiency>


>  <Binding Efficiency>


>  <Surface Efficiency>


>  <Assay Index>
406904

>  <Assay Category>


>  <Assay Organism>
SARS coronavirus

>  <Target ID>
101075

>  <Target Name>
Replicase polyprotein 1ab

>  <Target Organism>
SARS coronavirus

>  <Target Description>
Target is a single protein chain

>  <Sequence Accession>
P0C6X7

>  <Reference>
Bioorg. Med. Chem. Lett. 18 (23), 6110-6114 (2008)

>  <Pubmed ID>
18947995

>  <DOI>
10.1016/j.bmcl.2008.10.023

>  <InChI-Key>
PSSIXVHSZSMVOK-UHFFFAOYSA-N

>  <Molecular Formula>
C16H17N3OS

>  <Monoisotopic Mass>
299.109232

>  <Druglikeness>
3.6485

$$$$
Compound 419
Actelion Java MolfileCreator 1.0

 14 15  0  0  0  0  0  0  0  0999 V2000
    0.0000   -0.0000   -0.0000 S   0  0  0  0  0  0  0  0  0  0  0  0
    1.3547    0.6298   -0.0000 C   0  0  0  0  0  0  0  0  0  0  0  0
   -1.0220    1.1289   -0.0000 C   0  0  0  0  0  0  0  0  0  0  0  0
    2.6500   -0.1069   -0.0000 C   0  0  0  0  0  0  0  0  0  0  0  0
    1.1883    2.1390   -0.0000 C   0  0  0  0  0  0  0  0  0  0  0  0
   -0.2852    2.4480   -0.0000 C   0  0  0  0  0  0  0  0  0  0  0  0
    2.6381   -1.6042   -0.0000 O   0  0  0  0  0  0  0  0  0  0  0  0
    3.9453    0.6536   -0.0000 C   0  0  0  0  0  0  0  0  0  0  0  0
    5.2405   -0.0832   -0.0000 C   0  0  0  0  0  0  0  0  0  0  0  0
    5.2286   -1.5805   -0.0000 C   0  0  0  0  0  0  0  0  0  0  0  0
    6.5239    0.6773   -0.0000 C   0  0  0  0  0  0  0  0  0  0  0  0
    6.5239   -2.3172   -0.0000 N   0  0  0  0  0  0  0  0  0  0  0  0
    7.8192   -0.0594   -0.0000 C   0  0  0  0  0  0  0  0  0  0  0  0
    7.8192   -1.5567   -0.0000 C   0  0  0  0  0  0  0  0  0  0  0  0
  1  2  1  0  0  0  0
  1  3  1  0  0  0  0
  2  4  1  0  0  0  0
  2  5  2  0  0  0  0
  3  6  2  0  0  0  0
  4  7  2  0  0  0  0
  4  8  1  0  0  0  0
  8  9  1  0  0  0  0
  9 10  2  0  0  0  0
  9 11  1  0  0  0  0
 10 12  1  0  0  0  0
 11 13  2  0  0  0  0
 12 14  2  0  0  0  0
  5  6  1  0  0  0  0
 13 14  1  0  0  0  0
M  END
>  <MolRegNo>
371891

>  <m>
<

>  <Value>
10

>  <Unit>
%

>  <Type>
Inhibition

>  <Ligand Efficiency>


>  <Binding Efficiency>


>  <Surface Efficiency>


>  <Assay Index>
278390

>  <Assay Category>


>  <Assay Organism>
SARS coronavirus

>  <Target ID>
20012

>  <Target Name>
SARS coronavirus 3C-like proteinase

>  <Target Organism>
SARS coronavirus

>  <Target Description>
Target is a single protein chain

>  <Sequence Accession>
P0C6U8

>  <Reference>
J. Med. Chem. 50 (8), 1850-1864 (2007)

>  <Pubmed ID>
17381079

>  <DOI>
10.1021/jm061425k

>  <InChI-Key>
PTKTYQBZDLBMEH-UHFFFAOYSA-N

>  <Molecular Formula>
C11H9NOS

>  <Monoisotopic Mass>
203.040484

>  <Druglikeness>
2.406

$$$$
Compound 420
Actelion Java MolfileCreator 1.0

 14 15  0  0  0  0  0  0  0  0999 V2000
    0.0000   -0.0000   -0.0000 S   0  0  0  0  0  0  0  0  0  0  0  0
    1.3547    0.6298   -0.0000 C   0  0  0  0  0  0  0  0  0  0  0  0
   -1.0220    1.1289   -0.0000 C   0  0  0  0  0  0  0  0  0  0  0  0
    2.6500   -0.1069   -0.0000 C   0  0  0  0  0  0  0  0  0  0  0  0
    1.1883    2.1390   -0.0000 C   0  0  0  0  0  0  0  0  0  0  0  0
   -0.2852    2.4480   -0.0000 C   0  0  0  0  0  0  0  0  0  0  0  0
    2.6381   -1.6042   -0.0000 O   0  0  0  0  0  0  0  0  0  0  0  0
    3.9453    0.6536   -0.0000 O   0  0  0  0  0  0  0  0  0  0  0  0
    5.2405   -0.0832   -0.0000 C   0  0  0  0  0  0  0  0  0  0  0  0
    5.2286   -1.5805   -0.0000 C   0  0  0  0  0  0  0  0  0  0  0  0
    6.5239    0.6773   -0.0000 C   0  0  0  0  0  0  0  0  0  0  0  0
    6.5239   -2.3172   -0.0000 C   0  0  0  0  0  0  0  0  0  0  0  0
    7.8192   -0.0594   -0.0000 C   0  0  0  0  0  0  0  0  0  0  0  0
    7.8192   -1.5567   -0.0000 N   0  0  0  0  0  0  0  0  0  0  0  0
  1  2  1  0  0  0  0
  1  3  1  0  0  0  0
  2  4  1  0  0  0  0
  2  5  2  0  0  0  0
  3  6  2  0  0  0  0
  4  7  2  0  0  0  0
  4  8  1  0  0  0  0
  8  9  1  0  0  0  0
  9 10  2  0  0  0  0
  9 11  1  0  0  0  0
 10 12  1  0  0  0  0
 11 13  2  0  0  0  0
 12 14  2  0  0  0  0
  5  6  1  0  0  0  0
 13 14  1  0  0  0  0
M  END
>  <MolRegNo>
371779

>  <m>
<

>  <Value>
10

>  <Unit>
%

>  <Type>
Inhibition

>  <Ligand Efficiency>


>  <Binding Efficiency>


>  <Surface Efficiency>


>  <Assay Index>
278390

>  <Assay Category>


>  <Assay Organism>
SARS coronavirus

>  <Target ID>
20012

>  <Target Name>
SARS coronavirus 3C-like proteinase

>  <Target Organism>
SARS coronavirus

>  <Target Description>
Target is a single protein chain

>  <Sequence Accession>
P0C6U8

>  <Reference>
J. Med. Chem. 50 (8), 1850-1864 (2007)

>  <Pubmed ID>
17381079

>  <DOI>
10.1021/jm061425k

>  <InChI-Key>
PUSYOYOSUPYJTK-UHFFFAOYSA-N

>  <Molecular Formula>
C10H7NO2S

>  <Monoisotopic Mass>
205.019749

>  <Druglikeness>
1.7408

$$$$
Compound 421
Actelion Java MolfileCreator 1.0

 45 46  0  0  1  0  0  0  0  0999 V2000
    0.0000   -0.0000   -0.0000 O   0  0  0  0  0  0  0  0  0  0  0  0
    1.1104   -0.9805   -0.0000 C   0  0  0  0  0  0  0  0  0  0  0  0
    2.5635   -0.6497   -0.0000 N   0  0  0  0  0  0  0  0  0  0  0  0
    0.9569   -2.4572   -0.0000 C   0  0  0  0  0  0  0  0  0  0  0  0
    3.3077   -1.9374   -0.0000 C   0  0  0  0  0  0  0  0  0  0  0  0
    2.3154   -3.0478   -0.0000 C   0  0  0  0  0  0  0  0  0  0  0  0
   -0.3544   -3.2014   -0.0000 C   0  0  0  0  0  0  0  0  0  0  0  0
   -0.3662   -4.6899   -0.0000 C   0  0  0  0  0  0  0  0  0  0  0  0
   -1.6775   -5.4341   -0.0000 N   0  0  0  0  0  0  0  0  0  0  0  0
    0.9214   -5.4223   -0.0000 C   0  0  0  0  0  0  0  0  0  0  0  0
   -2.9888   -4.6781   -0.0000 C   0  0  0  0  0  0  0  0  0  0  0  0
    2.2091   -4.6544   -0.0000 C   0  0  0  0  0  0  0  0  0  0  0  0
   -3.0006   -3.1660   -0.0000 O   0  0  0  0  0  0  0  0  0  0  0  0
   -4.3000   -5.4223   -0.0000 C   0  0  0  0  0  0  0  0  0  0  0  0
    3.4967   -5.3869   -0.0000 C   0  0  0  0  0  0  0  0  0  0  0  0
   -5.6113   -4.6662   -0.0000 N   0  0  0  0  0  0  0  0  0  0  0  0
   -4.3118   -6.9108   -0.0000 C   0  0  0  0  0  0  0  0  0  0  0  0
    3.4849   -6.8753   -0.0000 O   0  0  0  0  0  0  0  0  0  0  0  0
    4.7844   -4.6190   -0.0000 O   0  0  0  0  0  0  0  0  0  0  0  0
   -6.9226   -5.4105   -0.0000 C   0  0  0  0  0  0  0  0  0  0  0  0
   -3.0242   -7.6432   -0.0000 C   0  0  0  0  0  0  0  0  0  0  0  0
    6.0720   -5.3514   -0.0000 C   0  0  0  0  0  0  0  0  0  0  0  0
   -6.9344   -6.8990   -0.0000 O   0  0  0  0  0  0  0  0  0  0  0  0
   -8.2339   -4.6544   -0.0000 C   0  0  0  0  0  0  0  0  0  0  0  0
   -3.0360   -9.1317   -0.0000 C   0  0  0  0  0  0  0  0  0  0  0  0
   -1.7366   -6.8753   -0.0000 C   0  0  0  0  0  0  0  0  0  0  0  0
    7.3597   -4.5836   -0.0000 C   0  0  0  0  0  0  0  0  0  0  0  0
   -9.5451   -5.3987   -0.0000 N   0  0  0  0  0  0  0  0  0  0  0  0
   -8.2457   -3.1423   -0.0000 C   0  0  0  0  0  0  0  0  0  0  0  0
  -10.8564   -4.6426   -0.0000 C   0  0  0  0  0  0  0  0  0  0  0  0
   -6.9580   -2.3745   -0.0000 O   0  0  0  0  0  0  0  0  0  0  0  0
   -9.5569   -2.3863   -0.0000 C   0  0  0  0  0  0  0  0  0  0  0  0
  -10.8682   -3.1305   -0.0000 O   0  0  0  0  0  0  0  0  0  0  0  0
  -12.1677   -5.3869   -0.0000 O   0  0  0  0  0  0  0  0  0  0  0  0
   -6.9698   -0.8624   -0.0000 C   0  0  0  0  0  0  0  0  0  0  0  0
  -13.4789   -4.6308   -0.0000 C   0  0  0  0  0  0  0  0  0  0  0  0
   -6.9935    0.6497   -0.0000 C   0  0  0  0  0  0  0  0  0  0  0  0
   -5.4814   -0.8387   -0.0000 C   0  0  0  0  0  0  0  0  0  0  0  0
   -8.4819   -0.8624   -0.0000 C   0  0  0  0  0  0  0  0  0  0  0  0
  -14.7902   -5.3750   -0.0000 C   0  0  0  0  0  0  0  0  0  0  0  0
  -16.1015   -4.6072   -0.0000 C   0  0  0  0  0  0  0  0  0  0  0  0
  -14.7902   -6.8517   -0.0000 C   0  0  0  0  0  0  0  0  0  0  0  0
  -17.4128   -5.3514   -0.0000 C   0  0  0  0  0  0  0  0  0  0  0  0
  -16.0897   -7.5959   -0.0000 C   0  0  0  0  0  0  0  0  0  0  0  0
  -17.4246   -6.8399   -0.0000 C   0  0  0  0  0  0  0  0  0  0  0  0
  1  2  2  0  0  0  0
  2  3  1  0  0  0  0
  2  4  1  0  0  0  0
  3  5  1  0  0  0  0
  4  6  1  0  0  0  0
  4  7  1  1  0  0  0
  7  8  1  0  0  0  0
  8  9  1  1  0  0  0
  8 10  1  0  0  0  0
  9 11  1  0  0  0  0
 10 12  2  0  0  0  0
 11 13  2  0  0  0  0
 11 14  1  0  0  0  0
 12 15  1  0  0  0  0
 14 16  1  6  0  0  0
 14 17  1  0  0  0  0
 15 18  2  0  0  0  0
 15 19  1  0  0  0  0
 16 20  1  0  0  0  0
 17 21  1  0  0  0  0
 19 22  1  0  0  0  0
 20 23  2  0  0  0  0
 20 24  1  0  0  0  0
 21 25  1  0  0  0  0
 21 26  1  0  0  0  0
 22 27  1  0  0  0  0
 24 28  1  1  0  0  0
 24 29  1  0  0  0  0
 28 30  1  0  0  0  0
 29 31  1  0  0  0  0
 29 32  1  0  0  0  0
 30 33  2  0  0  0  0
 30 34  1  0  0  0  0
 31 35  1  0  0  0  0
 34 36  1  0  0  0  0
 35 37  1  0  0  0  0
 35 38  1  0  0  0  0
 35 39  1  0  0  0  0
 36 40  1  0  0  0  0
 40 41  2  0  0  0  0
 40 42  1  0  0  0  0
 41 43  1  0  0  0  0
 42 44  2  0  0  0  0
 43 45  2  0  0  0  0
  5  6  1  0  0  0  0
 44 45  1  0  0  0  0
M  END
>  <MolRegNo>
356220

>  <m>
=

>  <Value>
58

>  <Unit>
nM

>  <Type>
Ki

>  <Ligand Efficiency>
0.22

>  <Binding Efficiency>
11.47

>  <Surface Efficiency>
4.49

>  <Assay Index>
265844

>  <Assay Category>


>  <Assay Organism>
SARS coronavirus

>  <Target ID>
20012

>  <Target Name>
SARS coronavirus 3C-like proteinase

>  <Target Organism>
SARS coronavirus

>  <Target Description>
Target is a single protein chain

>  <Sequence Accession>
P0C6U8

>  <Reference>
J. Med. Chem. 49 (16), 4971-4980 (2006)

>  <Pubmed ID>
16884309

>  <DOI>
10.1021/jm0603926

>  <InChI-Key>
PWBQMVUCCVWDEJ-LXEKOQJLSA-N

>  <Molecular Formula>
C33H50N4O8

>  <Monoisotopic Mass>
630.362866

>  <Druglikeness>
-33.657

$$$$
Compound 422
Actelion Java MolfileCreator 1.0

 21 22  0  0  0  0  0  0  0  0999 V2000
    0.0000   -0.0000   -0.0000 Br  0  0  0  0  0  0  0  0  0  0  0  0
   -1.3143    0.7460   -0.0000 C   0  0  0  0  0  0  0  0  0  0  0  0
   -1.3380    2.2498   -0.0000 C   0  0  0  0  0  0  0  0  0  0  0  0
   -2.6168   -0.0000   -0.0000 C   0  0  0  0  0  0  0  0  0  0  0  0
   -0.0592    3.0194   -0.0000 O   0  0  0  0  0  0  0  0  0  0  0  0
   -2.6642    2.9957   -0.0000 C   0  0  0  0  0  0  0  0  0  0  0  0
   -3.9311    0.7578   -0.0000 C   0  0  0  0  0  0  0  0  0  0  0  0
   -2.6879    4.4995   -0.0000 Br  0  0  0  0  0  0  0  0  0  0  0  0
   -3.9548    2.2498   -0.0000 C   0  0  0  0  0  0  0  0  0  0  0  0
   -5.2336    0.0118   -0.0000 S   0  0  0  0  0  0  0  0  0  0  0  0
   -4.4877   -1.2670   -0.0000 O   0  0  0  0  0  0  0  0  0  0  0  0
   -6.0033    1.3143   -0.0000 O   0  0  0  0  0  0  0  0  0  0  0  0
   -6.5361   -0.7341   -0.0000 C   0  0  0  0  0  0  0  0  0  0  0  0
   -7.8386    0.0237   -0.0000 C   0  0  0  0  0  0  0  0  0  0  0  0
   -6.5480   -2.2261   -0.0000 C   0  0  0  0  0  0  0  0  0  0  0  0
   -9.1411   -0.7104   -0.0000 C   0  0  0  0  0  0  0  0  0  0  0  0
   -7.8623   -2.9602   -0.0000 C   0  0  0  0  0  0  0  0  0  0  0  0
   -9.1529   -2.2024   -0.0000 C   0  0  0  0  0  0  0  0  0  0  0  0
  -10.4554   -2.9365   -0.0000 C   0  0  0  0  0  0  0  0  0  0  0  0
  -10.4673   -4.4166   -0.0000 O   0  0  0  0  0  0  0  0  0  0  0  0
  -11.7579   -2.1787   -0.0000 O   0  0  0  0  0  0  0  0  0  0  0  0
  1  2  1  0  0  0  0
  2  3  2  0  0  0  0
  2  4  1  0  0  0  0
  3  5  1  0  0  0  0
  3  6  1  0  0  0  0
  4  7  2  0  0  0  0
  6  8  1  0  0  0  0
  6  9  2  0  0  0  0
  7 10  1  0  0  0  0
 10 11  2  0  0  0  0
 10 12  2  0  0  0  0
 10 13  1  0  0  0  0
 13 14  2  0  0  0  0
 13 15  1  0  0  0  0
 14 16  1  0  0  0  0
 15 17  2  0  0  0  0
 16 18  2  0  0  0  0
 18 19  1  0  0  0  0
 19 20  2  0  0  0  0
 19 21  1  0  0  0  0
  7  9  1  0  0  0  0
 17 18  1  0  0  0  0
M  END
>  <MolRegNo>
356409

>  <m>
=

>  <Value>
16000

>  <Unit>
nM

>  <Type>
IC50

>  <Ligand Efficiency>
0.31

>  <Binding Efficiency>
11.00

>  <Surface Efficiency>
5.23

>  <Assay Index>
266027

>  <Assay Category>


>  <Assay Organism>
SARS coronavirus

>  <Target ID>
20012

>  <Target Name>
SARS coronavirus 3C-like proteinase

>  <Target Organism>
SARS coronavirus

>  <Target Description>
Target is a single protein chain

>  <Sequence Accession>
P0C6U8

>  <Reference>
J. Med. Chem. 49 (17), 5154-5161 (2006)

>  <Pubmed ID>
16913704

>  <DOI>
10.1021/jm060207o

>  <InChI-Key>
PWOOQGJCRRKDBU-UHFFFAOYSA-N

>  <Molecular Formula>
C13H8O5Br2S

>  <Monoisotopic Mass>
433.845917

>  <Druglikeness>
-2.9473

$$$$
Compound 423
Actelion Java MolfileCreator 1.0

 31 33  0  0  0  0  0  0  0  0999 V2000
    0.0000   -0.0000   -0.0000 S   0  0  0  0  0  0  0  0  0  0  0  0
    1.2860   -0.7383   -0.0000 C   0  0  0  0  0  0  0  0  0  0  0  0
   -1.3098   -0.7383   -0.0000 C   0  0  0  0  0  0  0  0  0  0  0  0
    1.2622   -2.2267   -0.0000 N   0  0  0  0  0  0  0  0  0  0  0  0
    2.5601    0.0357   -0.0000 N   0  0  0  0  0  0  0  0  0  0  0  0
   -2.6196    0.0238   -0.0000 C   0  0  0  0  0  0  0  0  0  0  0  0
    2.5482   -2.9649   -0.0000 C   0  0  0  0  0  0  0  0  0  0  0  0
    3.8461   -0.6906   -0.0000 C   0  0  0  0  0  0  0  0  0  0  0  0
   -2.6315    1.5360   -0.0000 O   0  0  0  0  0  0  0  0  0  0  0  0
   -3.9294   -0.7144   -0.0000 N   0  0  0  0  0  0  0  0  0  0  0  0
    2.5363   -4.4533   -0.0000 O   0  0  0  0  0  0  0  0  0  0  0  0
    3.8342   -2.2029   -0.0000 C   0  0  0  0  0  0  0  0  0  0  0  0
    5.1320    0.0834   -0.0000 C   0  0  0  0  0  0  0  0  0  0  0  0
   -5.2392    0.0476   -0.0000 C   0  0  0  0  0  0  0  0  0  0  0  0
    5.1201   -2.9411   -0.0000 C   0  0  0  0  0  0  0  0  0  0  0  0
    6.4180   -0.6549   -0.0000 C   0  0  0  0  0  0  0  0  0  0  0  0
    5.1082    1.5837   -0.0000 C   0  0  0  0  0  0  0  0  0  0  0  0
   -6.5609   -0.6906   -0.0000 C   0  0  0  0  0  0  0  0  0  0  0  0
   -5.2511    1.5718   -0.0000 C   0  0  0  0  0  0  0  0  0  0  0  0
    6.3942   -3.6794   -0.0000 N   0  0  0  0  0  0  0  0  0  0  0  0
    7.7040    0.1072   -0.0000 C   0  0  0  0  0  0  0  0  0  0  0  0
    6.3823    2.3576   -0.0000 C   0  0  0  0  0  0  0  0  0  0  0  0
   -7.8707    0.0714   -0.0000 C   0  0  0  0  0  0  0  0  0  0  0  0
   -6.5728    2.3219   -0.0000 C   0  0  0  0  0  0  0  0  0  0  0  0
    8.9900   -0.6311   -0.0000 O   0  0  0  0  0  0  0  0  0  0  0  0
    7.6921    1.6194   -0.0000 C   0  0  0  0  0  0  0  0  0  0  0  0
   -7.8826    1.5837   -0.0000 C   0  0  0  0  0  0  0  0  0  0  0  0
    8.9900   -2.1195   -0.0000 C   0  0  0  0  0  0  0  0  0  0  0  0
   -9.1924    2.3457   -0.0000 C   0  0  0  0  0  0  0  0  0  0  0  0
   -9.2043    3.8580   -0.0000 O   0  0  0  0  0  0  0  0  0  0  0  0
  -10.5022    1.6075   -0.0000 C   0  0  0  0  0  0  0  0  0  0  0  0
  1  2  1  0  0  0  0
  1  3  1  0  0  0  0
  2  4  2  0  0  0  0
  2  5  1  0  0  0  0
  3  6  1  0  0  0  0
  4  7  1  0  0  0  0
  5  8  2  0  0  0  0
  6  9  2  0  0  0  0
  6 10  1  0  0  0  0
  7 11  1  0  0  0  0
  7 12  2  0  0  0  0
  8 13  1  0  0  0  0
 10 14  1  0  0  0  0
 12 15  1  0  0  0  0
 13 16  2  0  0  0  0
 13 17  1  0  0  0  0
 14 18  2  0  0  0  0
 14 19  1  0  0  0  0
 15 20  3  0  0  0  0
 16 21  1  0  0  0  0
 17 22  2  0  0  0  0
 18 23  1  0  0  0  0
 19 24  2  0  0  0  0
 21 25  1  0  0  0  0
 21 26  2  0  0  0  0
 23 27  2  0  0  0  0
 25 28  1  0  0  0  0
 27 29  1  0  0  0  0
 29 30  2  0  0  0  0
 29 31  1  0  0  0  0
  8 12  1  0  0  0  0
 22 26  1  0  0  0  0
 24 27  1  0  0  0  0
M  END
>  <MolRegNo>
348711

>  <m>
=

>  <Value>
1.6596e13

>  <Unit>
nM

>  <Type>
IC50

>  <Ligand Efficiency>


>  <Binding Efficiency>


>  <Surface Efficiency>


>  <Assay Index>
262926

>  <Assay Category>


>  <Assay Organism>
SARS coronavirus

>  <Target ID>
20012

>  <Target Name>
SARS coronavirus 3C-like proteinase

>  <Target Organism>
SARS coronavirus

>  <Target Description>
Target is a single protein chain

>  <Sequence Accession>
P0C6U8

>  <Reference>
J. Med. Chem. 49 (12), 3485-3495 (2006)

>  <Pubmed ID>
16759091

>  <DOI>
10.1021/jm050852f

>  <InChI-Key>
PWZKDBYJLZTANB-UHFFFAOYSA-N

>  <Molecular Formula>
C22H18N4O4S

>  <Monoisotopic Mass>
434.104876

>  <Druglikeness>
-2.9232

$$$$
Compound 424
Actelion Java MolfileCreator 1.0

 31 33  0  0  0  0  0  0  0  0999 V2000
    0.0000   -0.0000   -0.0000 S   0  0  0  0  0  0  0  0  0  0  0  0
    1.2860   -0.7383   -0.0000 C   0  0  0  0  0  0  0  0  0  0  0  0
   -1.3098   -0.7383   -0.0000 C   0  0  0  0  0  0  0  0  0  0  0  0
    1.2622   -2.2267   -0.0000 N   0  0  0  0  0  0  0  0  0  0  0  0
    2.5601    0.0357   -0.0000 N   0  0  0  0  0  0  0  0  0  0  0  0
   -2.6196    0.0238   -0.0000 C   0  0  0  0  0  0  0  0  0  0  0  0
    2.5482   -2.9649   -0.0000 C   0  0  0  0  0  0  0  0  0  0  0  0
    3.8461   -0.6906   -0.0000 C   0  0  0  0  0  0  0  0  0  0  0  0
   -2.6315    1.5360   -0.0000 O   0  0  0  0  0  0  0  0  0  0  0  0
   -3.9294   -0.7144   -0.0000 N   0  0  0  0  0  0  0  0  0  0  0  0
    2.5363   -4.4533   -0.0000 O   0  0  0  0  0  0  0  0  0  0  0  0
    3.8342   -2.2029   -0.0000 C   0  0  0  0  0  0  0  0  0  0  0  0
    5.1320    0.0834   -0.0000 C   0  0  0  0  0  0  0  0  0  0  0  0
   -5.2392    0.0476   -0.0000 C   0  0  0  0  0  0  0  0  0  0  0  0
    5.1201   -2.9411   -0.0000 C   0  0  0  0  0  0  0  0  0  0  0  0
    6.4180   -0.6549   -0.0000 C   0  0  0  0  0  0  0  0  0  0  0  0
    5.1082    1.5837   -0.0000 C   0  0  0  0  0  0  0  0  0  0  0  0
   -6.5609   -0.6906   -0.0000 C   0  0  0  0  0  0  0  0  0  0  0  0
   -5.2511    1.5718   -0.0000 C   0  0  0  0  0  0  0  0  0  0  0  0
    6.3942   -3.6794   -0.0000 N   0  0  0  0  0  0  0  0  0  0  0  0
    7.7040    0.1072   -0.0000 C   0  0  0  0  0  0  0  0  0  0  0  0
    6.3823    2.3576   -0.0000 C   0  0  0  0  0  0  0  0  0  0  0  0
   -7.8707    0.0714   -0.0000 C   0  0  0  0  0  0  0  0  0  0  0  0
   -6.5728    2.3219   -0.0000 C   0  0  0  0  0  0  0  0  0  0  0  0
    8.9900   -0.6311   -0.0000 O   0  0  0  0  0  0  0  0  0  0  0  0
    7.6921    1.6194   -0.0000 C   0  0  0  0  0  0  0  0  0  0  0  0
   -7.8826    1.5837   -0.0000 C   0  0  0  0  0  0  0  0  0  0  0  0
    8.9900   -2.1195   -0.0000 C   0  0  0  0  0  0  0  0  0  0  0  0
   -9.1924    2.3457   -0.0000 C   0  0  0  0  0  0  0  0  0  0  0  0
   -9.2043    3.8580   -0.0000 O   0  0  0  0  0  0  0  0  0  0  0  0
  -10.5022    1.6075   -0.0000 C   0  0  0  0  0  0  0  0  0  0  0  0
  1  2  1  0  0  0  0
  1  3  1  0  0  0  0
  2  4  2  0  0  0  0
  2  5  1  0  0  0  0
  3  6  1  0  0  0  0
  4  7  1  0  0  0  0
  5  8  2  0  0  0  0
  6  9  2  0  0  0  0
  6 10  1  0  0  0  0
  7 11  1  0  0  0  0
  7 12  2  0  0  0  0
  8 13  1  0  0  0  0
 10 14  1  0  0  0  0
 12 15  1  0  0  0  0
 13 16  2  0  0  0  0
 13 17  1  0  0  0  0
 14 18  2  0  0  0  0
 14 19  1  0  0  0  0
 15 20  3  0  0  0  0
 16 21  1  0  0  0  0
 17 22  2  0  0  0  0
 18 23  1  0  0  0  0
 19 24  2  0  0  0  0
 21 25  1  0  0  0  0
 21 26  2  0  0  0  0
 23 27  2  0  0  0  0
 25 28  1  0  0  0  0
 27 29  1  0  0  0  0
 29 30  2  0  0  0  0
 29 31  1  0  0  0  0
  8 12  1  0  0  0  0
 22 26  1  0  0  0  0
 24 27  1  0  0  0  0
M  END
>  <MolRegNo>
348711

>  <m>
=

>  <Value>
60000

>  <Unit>
nM

>  <Type>
IC50

>  <Ligand Efficiency>
0.19

>  <Binding Efficiency>
9.72

>  <Surface Efficiency>
3.37

>  <Assay Index>
262926

>  <Assay Category>


>  <Assay Organism>
SARS coronavirus

>  <Target ID>
20012

>  <Target Name>
SARS coronavirus 3C-like proteinase

>  <Target Organism>
SARS coronavirus

>  <Target Description>
Target is a single protein chain

>  <Sequence Accession>
P0C6U8

>  <Reference>
J. Med. Chem. 49 (12), 3485-3495 (2006)

>  <Pubmed ID>
16759091

>  <DOI>
10.1021/jm050852f

>  <InChI-Key>
PWZKDBYJLZTANB-UHFFFAOYSA-N

>  <Molecular Formula>
C22H18N4O4S

>  <Monoisotopic Mass>
434.104876

>  <Druglikeness>
-2.9232

$$$$
Compound 425
Actelion Java MolfileCreator 1.0

 21 22  0  0  0  0  0  0  0  0999 V2000
    0.0000   -0.0000   -0.0000 S   0  0  0  0  0  0  0  0  0  0  0  0
    0.7501   -1.2858   -0.0000 O   0  0  0  0  0  0  0  0  0  0  0  0
   -0.7739    1.3096   -0.0000 O   0  0  0  0  0  0  0  0  0  0  0  0
   -1.3096   -0.7382   -0.0000 C   0  0  0  0  0  0  0  0  0  0  0  0
    1.2858    0.7739   -0.0000 C   0  0  0  0  0  0  0  0  0  0  0  0
   -1.3216   -2.2383   -0.0000 C   0  0  0  0  0  0  0  0  0  0  0  0
   -2.6193    0.0238   -0.0000 C   0  0  0  0  0  0  0  0  0  0  0  0
    2.5836    0.0357   -0.0000 C   0  0  0  0  0  0  0  0  0  0  0  0
    1.2620    2.2859   -0.0000 C   0  0  0  0  0  0  0  0  0  0  0  0
   -0.0357   -2.9765   -0.0000 C   0  0  0  0  0  0  0  0  0  0  0  0
   -2.6431   -2.9765   -0.0000 C   0  0  0  0  0  0  0  0  0  0  0  0
   -3.9289   -0.7144   -0.0000 C   0  0  0  0  0  0  0  0  0  0  0  0
    2.5836   -1.4525   -0.0000 C   0  0  0  0  0  0  0  0  0  0  0  0
    3.8694    0.8096   -0.0000 C   0  0  0  0  0  0  0  0  0  0  0  0
    2.5360    3.0598   -0.0000 C   0  0  0  0  0  0  0  0  0  0  0  0
    1.2501   -2.2145   -0.0000 O   0  0  0  0  0  0  0  0  0  0  0  0
   -0.0476   -4.4647   -0.0000 O   0  0  0  0  0  0  0  0  0  0  0  0
   -3.9528   -2.2145   -0.0000 C   0  0  0  0  0  0  0  0  0  0  0  0
    2.1788   -2.8812   -0.0000 O   0  0  0  0  0  0  0  0  0  0  0  0
    3.8813   -2.1788   -0.0000 C   0  0  0  0  0  0  0  0  0  0  0  0
    3.8456    2.3217   -0.0000 C   0  0  0  0  0  0  0  0  0  0  0  0
  1  2  2  0  0  0  0
  1  3  2  0  0  0  0
  1  4  1  0  0  0  0
  1  5  1  0  0  0  0
  4  6  2  0  0  0  0
  4  7  1  0  0  0  0
  5  8  2  0  0  0  0
  5  9  1  0  0  0  0
  6 10  1  0  0  0  0
  6 11  1  0  0  0  0
  7 12  2  0  0  0  0
  8 13  1  0  0  0  0
  8 14  1  0  0  0  0
  9 15  2  0  0  0  0
 10 16  2  0  0  0  0
 10 17  1  0  0  0  0
 11 18  2  0  0  0  0
 13 19  2  0  0  0  0
 13 20  1  0  0  0  0
 14 21  2  0  0  0  0
 12 18  1  0  0  0  0
 15 21  1  0  0  0  0
M  END
>  <MolRegNo>
356410

>  <m>
=

>  <Value>
16000

>  <Unit>
nM

>  <Type>
IC50

>  <Ligand Efficiency>
0.31

>  <Binding Efficiency>
15.76

>  <Surface Efficiency>
5.42

>  <Assay Index>
266027

>  <Assay Category>


>  <Assay Organism>
SARS coronavirus

>  <Target ID>
20012

>  <Target Name>
SARS coronavirus 3C-like proteinase

>  <Target Organism>
SARS coronavirus

>  <Target Description>
Target is a single protein chain

>  <Sequence Accession>
P0C6U8

>  <Reference>
J. Med. Chem. 49 (17), 5154-5161 (2006)

>  <Pubmed ID>
16913704

>  <DOI>
10.1021/jm060207o

>  <InChI-Key>
PZDMHBOCYKZMGI-UHFFFAOYSA-N

>  <Molecular Formula>
C15H12O5S

>  <Monoisotopic Mass>
304.040545

>  <Druglikeness>
-1.2837

$$$$
Compound 426
Actelion Java MolfileCreator 1.0

 19 21  0  0  0  0  0  0  0  0999 V2000
    0.0000   -0.0000   -0.0000 S   0  0  0  0  0  0  0  0  0  0  0  0
    1.1998    0.8940   -0.0000 C   0  0  0  0  0  0  0  0  0  0  0  0
    0.4470   -1.4116   -0.0000 C   0  0  0  0  0  0  0  0  0  0  0  0
    1.1881    2.3997   -0.0000 C   0  0  0  0  0  0  0  0  0  0  0  0
    2.3997    0.0235   -0.0000 C   0  0  0  0  0  0  0  0  0  0  0  0
    1.9291   -1.3998   -0.0000 C   0  0  0  0  0  0  0  0  0  0  0  0
    2.4702    3.1643   -0.0000 N   0  0  0  0  0  0  0  0  0  0  0  0
   -0.1176    3.1643   -0.0000 C   0  0  0  0  0  0  0  0  0  0  0  0
    2.4585    4.6699   -0.0000 C   0  0  0  0  0  0  0  0  0  0  0  0
   -0.1294    4.6699   -0.0000 C   0  0  0  0  0  0  0  0  0  0  0  0
    3.7407    5.4345   -0.0000 O   0  0  0  0  0  0  0  0  0  0  0  0
    1.1528    5.4345   -0.0000 C   0  0  0  0  0  0  0  0  0  0  0  0
   -1.4351    5.4345   -0.0000 C   0  0  0  0  0  0  0  0  0  0  0  0
    1.1410    6.9402   -0.0000 C   0  0  0  0  0  0  0  0  0  0  0  0
   -1.5998    6.9285   -0.0000 S   0  0  0  0  0  0  0  0  0  0  0  0
   -2.8114    4.8346   -0.0000 C   0  0  0  0  0  0  0  0  0  0  0  0
    1.1293    8.4459   -0.0000 N   0  0  0  0  0  0  0  0  0  0  0  0
   -3.0702    7.2461   -0.0000 C   0  0  0  0  0  0  0  0  0  0  0  0
   -3.8230    5.9521   -0.0000 C   0  0  0  0  0  0  0  0  0  0  0  0
  1  2  1  0  0  0  0
  1  3  1  0  0  0  0
  2  4  1  0  0  0  0
  2  5  2  0  0  0  0
  3  6  2  0  0  0  0
  4  7  2  0  0  0  0
  4  8  1  0  0  0  0
  7  9  1  0  0  0  0
  8 10  2  0  0  0  0
  9 11  1  0  0  0  0
  9 12  2  0  0  0  0
 10 13  1  0  0  0  0
 12 14  1  0  0  0  0
 13 15  1  0  0  0  0
 13 16  2  0  0  0  0
 14 17  3  0  0  0  0
 15 18  1  0  0  0  0
 16 19  1  0  0  0  0
  5  6  1  0  0  0  0
 10 12  1  0  0  0  0
 18 19  2  0  0  0  0
M  END
>  <MolRegNo>
730097

>  <m>
>

>  <Value>
1.0e5

>  <Unit>
nM

>  <Type>
EC50

>  <Ligand Efficiency>


>  <Binding Efficiency>


>  <Surface Efficiency>


>  <Assay Index>
825873

>  <Assay Category>


>  <Assay Organism>
SARS coronavirus

>  <Target ID>
100499

>  <Target Name>
SARS coronavirus

>  <Target Organism>
SARS coronavirus

>  <Target Description>
Target is a complete organism

>  <Sequence Accession>


>  <Reference>


>  <Pubmed ID>
24486419

>  <DOI>
10.1016/j.ejmech.2013.12.055

>  <InChI-Key>
PZUIIRHHOWQYKG-UHFFFAOYSA-N

>  <Molecular Formula>
C14H8N2OS2

>  <Monoisotopic Mass>
284.007803

>  <Druglikeness>
-2.8386

$$$$
Compound 427
Actelion Java MolfileCreator 1.0

 34 37  0  0  0  0  0  0  0  0999 V2000
    0.0000   -0.0000   -0.0000 Cl  0  0  0  0  0  0  0  0  0  0  0  0
    0.6051   -1.3526   -0.0000 C   0  0  0  0  0  0  0  0  0  0  0  0
   -0.2729   -2.5629   -0.0000 C   0  0  0  0  0  0  0  0  0  0  0  0
    2.0764   -1.4832   -0.0000 C   0  0  0  0  0  0  0  0  0  0  0  0
   -1.7679   -2.3968   -0.0000 C   0  0  0  0  0  0  0  0  0  0  0  0
    0.3204   -3.9155   -0.0000 C   0  0  0  0  0  0  0  0  0  0  0  0
    2.6934   -2.8358   -0.0000 C   0  0  0  0  0  0  0  0  0  0  0  0
   -2.5392   -1.0916   -0.0000 N   0  0  0  0  0  0  0  0  0  0  0  0
   -2.7765   -3.5002   -0.0000 C   0  0  0  0  0  0  0  0  0  0  0  0
    1.7916   -4.0579   -0.0000 C   0  0  0  0  0  0  0  0  0  0  0  0
    4.1647   -2.9663   -0.0000 Cl  0  0  0  0  0  0  0  0  0  0  0  0
   -4.0104   -1.4001   -0.0000 O   0  0  0  0  0  0  0  0  0  0  0  0
   -4.1528   -2.8833   -0.0000 C   0  0  0  0  0  0  0  0  0  0  0  0
   -5.4580   -3.6308   -0.0000 C   0  0  0  0  0  0  0  0  0  0  0  0
   -6.7632   -2.8833   -0.0000 N   0  0  0  0  0  0  0  0  0  0  0  0
   -5.4580   -5.1258   -0.0000 C   0  0  0  0  0  0  0  0  0  0  0  0
   -8.0565   -3.6308   -0.0000 C   0  0  0  0  0  0  0  0  0  0  0  0
   -6.7632   -5.8614   -0.0000 C   0  0  0  0  0  0  0  0  0  0  0  0
   -9.3617   -2.8714   -0.0000 S   0  0  0  0  0  0  0  0  0  0  0  0
   -8.0802   -5.1139   -0.0000 N   0  0  0  0  0  0  0  0  0  0  0  0
  -10.6668   -3.6070   -0.0000 C   0  0  0  0  0  0  0  0  0  0  0  0
  -11.9720   -2.8477   -0.0000 C   0  0  0  0  0  0  0  0  0  0  0  0
  -11.9839   -1.3408   -0.0000 O   0  0  0  0  0  0  0  0  0  0  0  0
  -13.2772   -3.5833   -0.0000 N   0  0  0  0  0  0  0  0  0  0  0  0
  -14.5824   -2.8239   -0.0000 C   0  0  0  0  0  0  0  0  0  0  0  0
  -15.8994   -3.5596   -0.0000 C   0  0  0  0  0  0  0  0  0  0  0  0
  -14.5942   -1.3052   -0.0000 C   0  0  0  0  0  0  0  0  0  0  0  0
  -17.2046   -2.8002   -0.0000 C   0  0  0  0  0  0  0  0  0  0  0  0
  -15.9113   -0.5577   -0.0000 C   0  0  0  0  0  0  0  0  0  0  0  0
  -17.2164   -1.2933   -0.0000 C   0  0  0  0  0  0  0  0  0  0  0  0
  -18.5216   -0.5339   -0.0000 C   0  0  0  0  0  0  0  0  0  0  0  0
  -17.7978    0.7712   -0.0000 F   0  0  0  0  0  0  0  0  0  0  0  0
  -19.2929   -1.8035   -0.0000 F   0  0  0  0  0  0  0  0  0  0  0  0
  -19.8387    0.2254   -0.0000 F   0  0  0  0  0  0  0  0  0  0  0  0
  1  2  1  0  0  0  0
  2  3  2  0  0  0  0
  2  4  1  0  0  0  0
  3  5  1  0  0  0  0
  3  6  1  0  0  0  0
  4  7  2  0  0  0  0
  5  8  2  0  0  0  0
  5  9  1  0  0  0  0
  6 10  2  0  0  0  0
  7 11  1  0  0  0  0
  8 12  1  0  0  0  0
  9 13  2  0  0  0  0
 13 14  1  0  0  0  0
 14 15  2  0  0  0  0
 14 16  1  0  0  0  0
 15 17  1  0  0  0  0
 16 18  2  0  0  0  0
 17 19  1  0  0  0  0
 17 20  2  0  0  0  0
 19 21  1  0  0  0  0
 21 22  1  0  0  0  0
 22 23  2  0  0  0  0
 22 24  1  0  0  0  0
 24 25  1  0  0  0  0
 25 26  2  0  0  0  0
 25 27  1  0  0  0  0
 26 28  1  0  0  0  0
 27 29  2  0  0  0  0
 28 30  2  0  0  0  0
 30 31  1  0  0  0  0
 31 32  1  0  0  0  0
 31 33  1  0  0  0  0
 31 34  1  0  0  0  0
  7 10  1  0  0  0  0
 12 13  1  0  0  0  0
 18 20  1  0  0  0  0
 29 30  1  0  0  0  0
M  END
>  <MolRegNo>
349607

>  <m>
=

>  <Value>
6.6069e13

>  <Unit>
nM

>  <Type>
IC50

>  <Ligand Efficiency>


>  <Binding Efficiency>


>  <Surface Efficiency>


>  <Assay Index>
262926

>  <Assay Category>


>  <Assay Organism>
SARS coronavirus

>  <Target ID>
20012

>  <Target Name>
SARS coronavirus 3C-like proteinase

>  <Target Organism>
SARS coronavirus

>  <Target Description>
Target is a single protein chain

>  <Sequence Accession>
P0C6U8

>  <Reference>
J. Med. Chem. 49 (12), 3485-3495 (2006)

>  <Pubmed ID>
16759091

>  <DOI>
10.1021/jm050852f

>  <InChI-Key>
QECWOSUSNVKLGQ-UHFFFAOYSA-N

>  <Molecular Formula>
C22H13N4O2Cl2F3S

>  <Monoisotopic Mass>
524.008834

>  <Druglikeness>
-3.8881

$$$$
Compound 428
Actelion Java MolfileCreator 1.0

 34 37  0  0  0  0  0  0  0  0999 V2000
    0.0000   -0.0000   -0.0000 Cl  0  0  0  0  0  0  0  0  0  0  0  0
    0.6051   -1.3526   -0.0000 C   0  0  0  0  0  0  0  0  0  0  0  0
   -0.2729   -2.5629   -0.0000 C   0  0  0  0  0  0  0  0  0  0  0  0
    2.0764   -1.4832   -0.0000 C   0  0  0  0  0  0  0  0  0  0  0  0
   -1.7679   -2.3968   -0.0000 C   0  0  0  0  0  0  0  0  0  0  0  0
    0.3204   -3.9155   -0.0000 C   0  0  0  0  0  0  0  0  0  0  0  0
    2.6934   -2.8358   -0.0000 C   0  0  0  0  0  0  0  0  0  0  0  0
   -2.5392   -1.0916   -0.0000 N   0  0  0  0  0  0  0  0  0  0  0  0
   -2.7765   -3.5002   -0.0000 C   0  0  0  0  0  0  0  0  0  0  0  0
    1.7916   -4.0579   -0.0000 C   0  0  0  0  0  0  0  0  0  0  0  0
    4.1647   -2.9663   -0.0000 Cl  0  0  0  0  0  0  0  0  0  0  0  0
   -4.0104   -1.4001   -0.0000 O   0  0  0  0  0  0  0  0  0  0  0  0
   -4.1528   -2.8833   -0.0000 C   0  0  0  0  0  0  0  0  0  0  0  0
   -5.4580   -3.6308   -0.0000 C   0  0  0  0  0  0  0  0  0  0  0  0
   -6.7632   -2.8833   -0.0000 N   0  0  0  0  0  0  0  0  0  0  0  0
   -5.4580   -5.1258   -0.0000 C   0  0  0  0  0  0  0  0  0  0  0  0
   -8.0565   -3.6308   -0.0000 C   0  0  0  0  0  0  0  0  0  0  0  0
   -6.7632   -5.8614   -0.0000 C   0  0  0  0  0  0  0  0  0  0  0  0
   -9.3617   -2.8714   -0.0000 S   0  0  0  0  0  0  0  0  0  0  0  0
   -8.0802   -5.1139   -0.0000 N   0  0  0  0  0  0  0  0  0  0  0  0
  -10.6668   -3.6070   -0.0000 C   0  0  0  0  0  0  0  0  0  0  0  0
  -11.9720   -2.8477   -0.0000 C   0  0  0  0  0  0  0  0  0  0  0  0
  -11.9839   -1.3408   -0.0000 O   0  0  0  0  0  0  0  0  0  0  0  0
  -13.2772   -3.5833   -0.0000 N   0  0  0  0  0  0  0  0  0  0  0  0
  -14.5824   -2.8239   -0.0000 C   0  0  0  0  0  0  0  0  0  0  0  0
  -15.8994   -3.5596   -0.0000 C   0  0  0  0  0  0  0  0  0  0  0  0
  -14.5942   -1.3052   -0.0000 C   0  0  0  0  0  0  0  0  0  0  0  0
  -17.2046   -2.8002   -0.0000 C   0  0  0  0  0  0  0  0  0  0  0  0
  -15.9113   -0.5577   -0.0000 C   0  0  0  0  0  0  0  0  0  0  0  0
  -17.2164   -1.2933   -0.0000 C   0  0  0  0  0  0  0  0  0  0  0  0
  -18.5216   -0.5339   -0.0000 C   0  0  0  0  0  0  0  0  0  0  0  0
  -17.7978    0.7712   -0.0000 F   0  0  0  0  0  0  0  0  0  0  0  0
  -19.2929   -1.8035   -0.0000 F   0  0  0  0  0  0  0  0  0  0  0  0
  -19.8387    0.2254   -0.0000 F   0  0  0  0  0  0  0  0  0  0  0  0
  1  2  1  0  0  0  0
  2  3  2  0  0  0  0
  2  4  1  0  0  0  0
  3  5  1  0  0  0  0
  3  6  1  0  0  0  0
  4  7  2  0  0  0  0
  5  8  2  0  0  0  0
  5  9  1  0  0  0  0
  6 10  2  0  0  0  0
  7 11  1  0  0  0  0
  8 12  1  0  0  0  0
  9 13  2  0  0  0  0
 13 14  1  0  0  0  0
 14 15  2  0  0  0  0
 14 16  1  0  0  0  0
 15 17  1  0  0  0  0
 16 18  2  0  0  0  0
 17 19  1  0  0  0  0
 17 20  2  0  0  0  0
 19 21  1  0  0  0  0
 21 22  1  0  0  0  0
 22 23  2  0  0  0  0
 22 24  1  0  0  0  0
 24 25  1  0  0  0  0
 25 26  2  0  0  0  0
 25 27  1  0  0  0  0
 26 28  1  0  0  0  0
 27 29  2  0  0  0  0
 28 30  2  0  0  0  0
 30 31  1  0  0  0  0
 31 32  1  0  0  0  0
 31 33  1  0  0  0  0
 31 34  1  0  0  0  0
  7 10  1  0  0  0  0
 12 13  1  0  0  0  0
 18 20  1  0  0  0  0
 29 30  1  0  0  0  0
M  END
>  <MolRegNo>
349607

>  <m>
=

>  <Value>
15000

>  <Unit>
nM

>  <Type>
IC50

>  <Ligand Efficiency>
0.19

>  <Binding Efficiency>
9.18

>  <Surface Efficiency>
5.96

>  <Assay Index>
262926

>  <Assay Category>


>  <Assay Organism>
SARS coronavirus

>  <Target ID>
20012

>  <Target Name>
SARS coronavirus 3C-like proteinase

>  <Target Organism>
SARS coronavirus

>  <Target Description>
Target is a single protein chain

>  <Sequence Accession>
P0C6U8

>  <Reference>
J. Med. Chem. 49 (12), 3485-3495 (2006)

>  <Pubmed ID>
16759091

>  <DOI>
10.1021/jm050852f

>  <InChI-Key>
QECWOSUSNVKLGQ-UHFFFAOYSA-N

>  <Molecular Formula>
C22H13N4O2Cl2F3S

>  <Monoisotopic Mass>
524.008834

>  <Druglikeness>
-3.8881

$$$$
Compound 429
Actelion Java MolfileCreator 1.0

 35 37  0  0  0  0  0  0  0  0999 V2000
    0.0000   -0.0000   -0.0000 O   0  0  0  0  0  0  0  0  0  0  0  0
   -0.8994    1.2308   -0.0000 N   0  0  0  0  0  0  0  0  0  0  0  0
   -2.4025    1.0888   -0.0000 O   0  0  0  0  0  0  0  0  0  0  0  0
   -0.2959    2.6155   -0.0000 C   0  0  0  0  0  0  0  0  0  0  0  0
    1.1835    2.7812   -0.0000 C   0  0  0  0  0  0  0  0  0  0  0  0
   -1.1953    3.8463   -0.0000 C   0  0  0  0  0  0  0  0  0  0  0  0
    1.7871    4.1658   -0.0000 C   0  0  0  0  0  0  0  0  0  0  0  0
   -0.5917    5.2310   -0.0000 C   0  0  0  0  0  0  0  0  0  0  0  0
    3.2664    4.3315   -0.0000 C   0  0  0  0  0  0  0  0  0  0  0  0
    0.8876    5.3967   -0.0000 C   0  0  0  0  0  0  0  0  0  0  0  0
    4.2605    3.2309   -0.0000 O   0  0  0  0  0  0  0  0  0  0  0  0
    4.0120    5.6452   -0.0000 C   0  0  0  0  0  0  0  0  0  0  0  0
    5.6215    3.8581   -0.0000 C   0  0  0  0  0  0  0  0  0  0  0  0
    5.4677    5.3493   -0.0000 C   0  0  0  0  0  0  0  0  0  0  0  0
    6.9115    3.1244   -0.0000 C   0  0  0  0  0  0  0  0  0  0  0  0
    6.8997    1.6332   -0.0000 C   0  0  0  0  0  0  0  0  0  0  0  0
    5.5860    0.8994   -0.0000 N   0  0  0  0  0  0  0  0  0  0  0  0
    8.1897    0.8994   -0.0000 C   0  0  0  0  0  0  0  0  0  0  0  0
    5.5742   -0.5917   -0.0000 C   0  0  0  0  0  0  0  0  0  0  0  0
    8.1778   -0.5917   -0.0000 O   0  0  0  0  0  0  0  0  0  0  0  0
    9.4797    1.6569   -0.0000 N   0  0  0  0  0  0  0  0  0  0  0  0
    6.8642   -1.3373   -0.0000 O   0  0  0  0  0  0  0  0  0  0  0  0
    4.2605   -1.3373   -0.0000 C   0  0  0  0  0  0  0  0  0  0  0  0
   10.7697    0.9231   -0.0000 C   0  0  0  0  0  0  0  0  0  0  0  0
    4.2487   -2.8285   -0.0000 C   0  0  0  0  0  0  0  0  0  0  0  0
    2.9469   -0.5681   -0.0000 C   0  0  0  0  0  0  0  0  0  0  0  0
   12.0596    1.6805   -0.0000 C   0  0  0  0  0  0  0  0  0  0  0  0
    2.9350   -3.5623   -0.0000 C   0  0  0  0  0  0  0  0  0  0  0  0
    1.6332   -1.3137   -0.0000 C   0  0  0  0  0  0  0  0  0  0  0  0
   13.3496    0.9468   -0.0000 C   0  0  0  0  0  0  0  0  0  0  0  0
    1.6214   -2.8048   -0.0000 C   0  0  0  0  0  0  0  0  0  0  0  0
   14.6396    1.7042   -0.0000 N   0  0  0  0  0  0  0  0  0  0  0  0
    0.3077   -3.5386   -0.0000 C   0  0  0  0  0  0  0  0  0  0  0  0
   15.9296    0.9705   -0.0000 C   0  0  0  0  0  0  0  0  0  0  0  0
   14.6278    3.2191   -0.0000 C   0  0  0  0  0  0  0  0  0  0  0  0
  1  2  2  0  0  0  0
  2  3  1  0  0  0  0
  2  4  1  0  0  0  0
  4  5  2  0  0  0  0
  4  6  1  0  0  0  0
  5  7  1  0  0  0  0
  6  8  2  0  0  0  0
  7  9  1  0  0  0  0
  7 10  2  0  0  0  0
  9 11  1  0  0  0  0
  9 12  2  0  0  0  0
 11 13  1  0  0  0  0
 12 14  1  0  0  0  0
 13 15  1  0  0  0  0
 15 16  2  0  0  0  0
 16 17  1  0  0  0  0
 16 18  1  0  0  0  0
 17 19  1  0  0  0  0
 18 20  2  0  0  0  0
 18 21  1  0  0  0  0
 19 22  2  0  0  0  0
 19 23  1  0  0  0  0
 21 24  1  0  0  0  0
 23 25  2  0  0  0  0
 23 26  1  0  0  0  0
 24 27  1  0  0  0  0
 25 28  1  0  0  0  0
 26 29  2  0  0  0  0
 27 30  1  0  0  0  0
 28 31  2  0  0  0  0
 30 32  1  0  0  0  0
 31 33  1  0  0  0  0
 32 34  1  0  0  0  0
 32 35  1  0  0  0  0
  8 10  1  0  0  0  0
 13 14  2  0  0  0  0
 29 31  1  0  0  0  0
M  CHG  2   2   1   3  -1
M  END
>  <MolRegNo>
774398

>  <m>
=

>  <Value>
38570

>  <Unit>
nM

>  <Type>
IC50

>  <Ligand Efficiency>
0.17

>  <Binding Efficiency>
9.26

>  <Surface Efficiency>
3.75

>  <Assay Index>
589666

>  <Assay Category>


>  <Assay Organism>
SARS coronavirus

>  <Target ID>
101075

>  <Target Name>
Replicase polyprotein 1ab

>  <Target Organism>
SARS coronavirus

>  <Target Description>
Target is a single protein chain

>  <Sequence Accession>
P0C6X7

>  <Reference>
Bioorg. Med. Chem. Lett. 21 (10), 3088-3091 (2011)

>  <Pubmed ID>
21470860

>  <DOI>
10.1016/j.bmcl.2011.03.034

>  <InChI-Key>
QFOLMPFZCVBCTJ-UHFFFAOYSA-N

>  <Molecular Formula>
C26H28N4O5

>  <Monoisotopic Mass>
476.205971

>  <Druglikeness>
2.1338

$$$$
Compound 430
Actelion Java MolfileCreator 1.0

 35 37  0  0  0  0  0  0  0  0999 V2000
    0.0000   -0.0000   -0.0000 O   0  0  0  0  0  0  0  0  0  0  0  0
   -0.8994    1.2308   -0.0000 N   0  0  0  0  0  0  0  0  0  0  0  0
   -2.4025    1.0888   -0.0000 O   0  0  0  0  0  0  0  0  0  0  0  0
   -0.2959    2.6155   -0.0000 C   0  0  0  0  0  0  0  0  0  0  0  0
    1.1835    2.7812   -0.0000 C   0  0  0  0  0  0  0  0  0  0  0  0
   -1.1953    3.8463   -0.0000 C   0  0  0  0  0  0  0  0  0  0  0  0
    1.7871    4.1658   -0.0000 C   0  0  0  0  0  0  0  0  0  0  0  0
   -0.5917    5.2310   -0.0000 C   0  0  0  0  0  0  0  0  0  0  0  0
    3.2664    4.3315   -0.0000 C   0  0  0  0  0  0  0  0  0  0  0  0
    0.8876    5.3967   -0.0000 C   0  0  0  0  0  0  0  0  0  0  0  0
    4.2605    3.2309   -0.0000 O   0  0  0  0  0  0  0  0  0  0  0  0
    4.0120    5.6452   -0.0000 C   0  0  0  0  0  0  0  0  0  0  0  0
    5.6215    3.8581   -0.0000 C   0  0  0  0  0  0  0  0  0  0  0  0
    5.4677    5.3493   -0.0000 C   0  0  0  0  0  0  0  0  0  0  0  0
    6.9115    3.1244   -0.0000 C   0  0  0  0  0  0  0  0  0  0  0  0
    6.8997    1.6332   -0.0000 C   0  0  0  0  0  0  0  0  0  0  0  0
    5.5860    0.8994   -0.0000 N   0  0  0  0  0  0  0  0  0  0  0  0
    8.1897    0.8994   -0.0000 C   0  0  0  0  0  0  0  0  0  0  0  0
    5.5742   -0.5917   -0.0000 C   0  0  0  0  0  0  0  0  0  0  0  0
    8.1778   -0.5917   -0.0000 O   0  0  0  0  0  0  0  0  0  0  0  0
    9.4797    1.6569   -0.0000 N   0  0  0  0  0  0  0  0  0  0  0  0
    6.8642   -1.3373   -0.0000 O   0  0  0  0  0  0  0  0  0  0  0  0
    4.2605   -1.3373   -0.0000 C   0  0  0  0  0  0  0  0  0  0  0  0
   10.7697    0.9231   -0.0000 C   0  0  0  0  0  0  0  0  0  0  0  0
    4.2487   -2.8285   -0.0000 C   0  0  0  0  0  0  0  0  0  0  0  0
    2.9469   -0.5681   -0.0000 C   0  0  0  0  0  0  0  0  0  0  0  0
   12.0596    1.6805   -0.0000 C   0  0  0  0  0  0  0  0  0  0  0  0
    2.9350   -3.5623   -0.0000 C   0  0  0  0  0  0  0  0  0  0  0  0
    1.6332   -1.3137   -0.0000 C   0  0  0  0  0  0  0  0  0  0  0  0
   13.3496    0.9468   -0.0000 C   0  0  0  0  0  0  0  0  0  0  0  0
    1.6214   -2.8048   -0.0000 C   0  0  0  0  0  0  0  0  0  0  0  0
   14.6396    1.7042   -0.0000 N   0  0  0  0  0  0  0  0  0  0  0  0
    0.3077   -3.5386   -0.0000 C   0  0  0  0  0  0  0  0  0  0  0  0
   15.9296    0.9705   -0.0000 C   0  0  0  0  0  0  0  0  0  0  0  0
   14.6278    3.2191   -0.0000 C   0  0  0  0  0  0  0  0  0  0  0  0
  1  2  2  0  0  0  0
  2  3  1  0  0  0  0
  2  4  1  0  0  0  0
  4  5  2  0  0  0  0
  4  6  1  0  0  0  0
  5  7  1  0  0  0  0
  6  8  2  0  0  0  0
  7  9  1  0  0  0  0
  7 10  2  0  0  0  0
  9 11  1  0  0  0  0
  9 12  2  0  0  0  0
 11 13  1  0  0  0  0
 12 14  1  0  0  0  0
 13 15  1  0  0  0  0
 15 16  2  0  0  0  0
 16 17  1  0  0  0  0
 16 18  1  0  0  0  0
 17 19  1  0  0  0  0
 18 20  2  0  0  0  0
 18 21  1  0  0  0  0
 19 22  2  0  0  0  0
 19 23  1  0  0  0  0
 21 24  1  0  0  0  0
 23 25  2  0  0  0  0
 23 26  1  0  0  0  0
 24 27  1  0  0  0  0
 25 28  1  0  0  0  0
 26 29  2  0  0  0  0
 27 30  1  0  0  0  0
 28 31  2  0  0  0  0
 30 32  1  0  0  0  0
 31 33  1  0  0  0  0
 32 34  1  0  0  0  0
 32 35  1  0  0  0  0
  8 10  1  0  0  0  0
 13 14  2  0  0  0  0
 29 31  1  0  0  0  0
M  CHG  2   2   1   3  -1
M  END
>  <MolRegNo>
774398

>  <m>
=

>  <Value>
82.59

>  <Unit>
%

>  <Type>
Inhibition

>  <Ligand Efficiency>


>  <Binding Efficiency>


>  <Surface Efficiency>


>  <Assay Index>
589665

>  <Assay Category>


>  <Assay Organism>
SARS coronavirus

>  <Target ID>
101075

>  <Target Name>
Replicase polyprotein 1ab

>  <Target Organism>
SARS coronavirus

>  <Target Description>
Target is a single protein chain

>  <Sequence Accession>
P0C6X7

>  <Reference>
Bioorg. Med. Chem. Lett. 21 (10), 3088-3091 (2011)

>  <Pubmed ID>
21470860

>  <DOI>
10.1016/j.bmcl.2011.03.034

>  <InChI-Key>
QFOLMPFZCVBCTJ-UHFFFAOYSA-N

>  <Molecular Formula>
C26H28N4O5

>  <Monoisotopic Mass>
476.205971

>  <Druglikeness>
2.1338

$$$$
Compound 431
Actelion Java MolfileCreator 1.0

 35 37  0  0  0  0  0  0  0  0999 V2000
    0.0000   -0.0000   -0.0000 O   0  0  0  0  0  0  0  0  0  0  0  0
   -0.8994    1.2308   -0.0000 N   0  0  0  0  0  0  0  0  0  0  0  0
   -2.4025    1.0888   -0.0000 O   0  0  0  0  0  0  0  0  0  0  0  0
   -0.2959    2.6155   -0.0000 C   0  0  0  0  0  0  0  0  0  0  0  0
    1.1835    2.7812   -0.0000 C   0  0  0  0  0  0  0  0  0  0  0  0
   -1.1953    3.8463   -0.0000 C   0  0  0  0  0  0  0  0  0  0  0  0
    1.7871    4.1658   -0.0000 C   0  0  0  0  0  0  0  0  0  0  0  0
   -0.5917    5.2310   -0.0000 C   0  0  0  0  0  0  0  0  0  0  0  0
    3.2664    4.3315   -0.0000 C   0  0  0  0  0  0  0  0  0  0  0  0
    0.8876    5.3967   -0.0000 C   0  0  0  0  0  0  0  0  0  0  0  0
    4.2605    3.2309   -0.0000 O   0  0  0  0  0  0  0  0  0  0  0  0
    4.0120    5.6452   -0.0000 C   0  0  0  0  0  0  0  0  0  0  0  0
    5.6215    3.8581   -0.0000 C   0  0  0  0  0  0  0  0  0  0  0  0
    5.4677    5.3493   -0.0000 C   0  0  0  0  0  0  0  0  0  0  0  0
    6.9115    3.1244   -0.0000 C   0  0  0  0  0  0  0  0  0  0  0  0
    6.8997    1.6332   -0.0000 C   0  0  0  0  0  0  0  0  0  0  0  0
    5.5860    0.8994   -0.0000 N   0  0  0  0  0  0  0  0  0  0  0  0
    8.1897    0.8994   -0.0000 C   0  0  0  0  0  0  0  0  0  0  0  0
    5.5742   -0.5917   -0.0000 C   0  0  0  0  0  0  0  0  0  0  0  0
    8.1778   -0.5917   -0.0000 O   0  0  0  0  0  0  0  0  0  0  0  0
    9.4797    1.6569   -0.0000 N   0  0  0  0  0  0  0  0  0  0  0  0
    6.8642   -1.3373   -0.0000 O   0  0  0  0  0  0  0  0  0  0  0  0
    4.2605   -1.3373   -0.0000 C   0  0  0  0  0  0  0  0  0  0  0  0
   10.7697    0.9231   -0.0000 C   0  0  0  0  0  0  0  0  0  0  0  0
    4.2487   -2.8285   -0.0000 C   0  0  0  0  0  0  0  0  0  0  0  0
    2.9469   -0.5681   -0.0000 C   0  0  0  0  0  0  0  0  0  0  0  0
   12.0596    1.6805   -0.0000 C   0  0  0  0  0  0  0  0  0  0  0  0
    2.9350   -3.5623   -0.0000 C   0  0  0  0  0  0  0  0  0  0  0  0
    1.6332   -1.3137   -0.0000 C   0  0  0  0  0  0  0  0  0  0  0  0
   13.3496    0.9468   -0.0000 C   0  0  0  0  0  0  0  0  0  0  0  0
    1.6214   -2.8048   -0.0000 C   0  0  0  0  0  0  0  0  0  0  0  0
   14.6396    1.7042   -0.0000 N   0  0  0  0  0  0  0  0  0  0  0  0
    0.3077   -3.5386   -0.0000 C   0  0  0  0  0  0  0  0  0  0  0  0
   15.9296    0.9705   -0.0000 C   0  0  0  0  0  0  0  0  0  0  0  0
   14.6278    3.2191   -0.0000 C   0  0  0  0  0  0  0  0  0  0  0  0
  1  2  2  0  0  0  0
  2  3  1  0  0  0  0
  2  4  1  0  0  0  0
  4  5  2  0  0  0  0
  4  6  1  0  0  0  0
  5  7  1  0  0  0  0
  6  8  2  0  0  0  0
  7  9  1  0  0  0  0
  7 10  2  0  0  0  0
  9 11  1  0  0  0  0
  9 12  2  0  0  0  0
 11 13  1  0  0  0  0
 12 14  1  0  0  0  0
 13 15  1  0  0  0  0
 15 16  2  0  0  0  0
 16 17  1  0  0  0  0
 16 18  1  0  0  0  0
 17 19  1  0  0  0  0
 18 20  2  0  0  0  0
 18 21  1  0  0  0  0
 19 22  2  0  0  0  0
 19 23  1  0  0  0  0
 21 24  1  0  0  0  0
 23 25  2  0  0  0  0
 23 26  1  0  0  0  0
 24 27  1  0  0  0  0
 25 28  1  0  0  0  0
 26 29  2  0  0  0  0
 27 30  1  0  0  0  0
 28 31  2  0  0  0  0
 30 32  1  0  0  0  0
 31 33  1  0  0  0  0
 32 34  1  0  0  0  0
 32 35  1  0  0  0  0
  8 10  1  0  0  0  0
 13 14  2  0  0  0  0
 29 31  1  0  0  0  0
M  CHG  2   2   1   3  -1
M  END
>  <MolRegNo>
774398

>  <m>


>  <Value>
0

>  <Unit>


>  <Type>
Inhibition

>  <Ligand Efficiency>


>  <Binding Efficiency>


>  <Surface Efficiency>


>  <Assay Index>
589667

>  <Assay Category>


>  <Assay Organism>
SARS coronavirus

>  <Target ID>
101075

>  <Target Name>
Replicase polyprotein 1ab

>  <Target Organism>
SARS coronavirus

>  <Target Description>
Target is a single protein chain

>  <Sequence Accession>
P0C6X7

>  <Reference>
Bioorg. Med. Chem. Lett. 21 (10), 3088-3091 (2011)

>  <Pubmed ID>
21470860

>  <DOI>
10.1016/j.bmcl.2011.03.034

>  <InChI-Key>
QFOLMPFZCVBCTJ-UHFFFAOYSA-N

>  <Molecular Formula>
C26H28N4O5

>  <Monoisotopic Mass>
476.205971

>  <Druglikeness>
2.1338

$$$$
Compound 432
Actelion Java MolfileCreator 1.0

 35 37  0  0  0  0  0  0  0  0999 V2000
    0.0000   -0.0000   -0.0000 O   0  0  0  0  0  0  0  0  0  0  0  0
   -0.8994    1.2308   -0.0000 N   0  0  0  0  0  0  0  0  0  0  0  0
   -2.4025    1.0888   -0.0000 O   0  0  0  0  0  0  0  0  0  0  0  0
   -0.2959    2.6155   -0.0000 C   0  0  0  0  0  0  0  0  0  0  0  0
    1.1835    2.7812   -0.0000 C   0  0  0  0  0  0  0  0  0  0  0  0
   -1.1953    3.8463   -0.0000 C   0  0  0  0  0  0  0  0  0  0  0  0
    1.7871    4.1658   -0.0000 C   0  0  0  0  0  0  0  0  0  0  0  0
   -0.5917    5.2310   -0.0000 C   0  0  0  0  0  0  0  0  0  0  0  0
    3.2664    4.3315   -0.0000 C   0  0  0  0  0  0  0  0  0  0  0  0
    0.8876    5.3967   -0.0000 C   0  0  0  0  0  0  0  0  0  0  0  0
    4.2605    3.2309   -0.0000 O   0  0  0  0  0  0  0  0  0  0  0  0
    4.0120    5.6452   -0.0000 C   0  0  0  0  0  0  0  0  0  0  0  0
    5.6215    3.8581   -0.0000 C   0  0  0  0  0  0  0  0  0  0  0  0
    5.4677    5.3493   -0.0000 C   0  0  0  0  0  0  0  0  0  0  0  0
    6.9115    3.1244   -0.0000 C   0  0  0  0  0  0  0  0  0  0  0  0
    6.8997    1.6332   -0.0000 C   0  0  0  0  0  0  0  0  0  0  0  0
    5.5860    0.8994   -0.0000 N   0  0  0  0  0  0  0  0  0  0  0  0
    8.1897    0.8994   -0.0000 C   0  0  0  0  0  0  0  0  0  0  0  0
    5.5742   -0.5917   -0.0000 C   0  0  0  0  0  0  0  0  0  0  0  0
    8.1778   -0.5917   -0.0000 O   0  0  0  0  0  0  0  0  0  0  0  0
    9.4797    1.6569   -0.0000 N   0  0  0  0  0  0  0  0  0  0  0  0
    6.8642   -1.3373   -0.0000 O   0  0  0  0  0  0  0  0  0  0  0  0
    4.2605   -1.3373   -0.0000 C   0  0  0  0  0  0  0  0  0  0  0  0
   10.7697    0.9231   -0.0000 C   0  0  0  0  0  0  0  0  0  0  0  0
    4.2487   -2.8285   -0.0000 C   0  0  0  0  0  0  0  0  0  0  0  0
    2.9469   -0.5681   -0.0000 C   0  0  0  0  0  0  0  0  0  0  0  0
   12.0596    1.6805   -0.0000 C   0  0  0  0  0  0  0  0  0  0  0  0
    2.9350   -3.5623   -0.0000 C   0  0  0  0  0  0  0  0  0  0  0  0
    1.6332   -1.3137   -0.0000 C   0  0  0  0  0  0  0  0  0  0  0  0
   13.3496    0.9468   -0.0000 C   0  0  0  0  0  0  0  0  0  0  0  0
    1.6214   -2.8048   -0.0000 C   0  0  0  0  0  0  0  0  0  0  0  0
   14.6396    1.7042   -0.0000 N   0  0  0  0  0  0  0  0  0  0  0  0
    0.3077   -3.5386   -0.0000 C   0  0  0  0  0  0  0  0  0  0  0  0
   15.9296    0.9705   -0.0000 C   0  0  0  0  0  0  0  0  0  0  0  0
   14.6278    3.2191   -0.0000 C   0  0  0  0  0  0  0  0  0  0  0  0
  1  2  2  0  0  0  0
  2  3  1  0  0  0  0
  2  4  1  0  0  0  0
  4  5  2  0  0  0  0
  4  6  1  0  0  0  0
  5  7  1  0  0  0  0
  6  8  2  0  0  0  0
  7  9  1  0  0  0  0
  7 10  2  0  0  0  0
  9 11  1  0  0  0  0
  9 12  2  0  0  0  0
 11 13  1  0  0  0  0
 12 14  1  0  0  0  0
 13 15  1  0  0  0  0
 15 16  2  0  0  0  0
 16 17  1  0  0  0  0
 16 18  1  0  0  0  0
 17 19  1  0  0  0  0
 18 20  2  0  0  0  0
 18 21  1  0  0  0  0
 19 22  2  0  0  0  0
 19 23  1  0  0  0  0
 21 24  1  0  0  0  0
 23 25  2  0  0  0  0
 23 26  1  0  0  0  0
 24 27  1  0  0  0  0
 25 28  1  0  0  0  0
 26 29  2  0  0  0  0
 27 30  1  0  0  0  0
 28 31  2  0  0  0  0
 30 32  1  0  0  0  0
 31 33  1  0  0  0  0
 32 34  1  0  0  0  0
 32 35  1  0  0  0  0
  8 10  1  0  0  0  0
 13 14  2  0  0  0  0
 29 31  1  0  0  0  0
M  CHG  2   2   1   3  -1
M  END
>  <MolRegNo>
774398

>  <m>
=

>  <Value>
9110

>  <Unit>
nM

>  <Type>
Ki

>  <Ligand Efficiency>
0.20

>  <Binding Efficiency>
10.58

>  <Surface Efficiency>
4.28

>  <Assay Index>
589724

>  <Assay Category>


>  <Assay Organism>
SARS coronavirus

>  <Target ID>
101075

>  <Target Name>
Replicase polyprotein 1ab

>  <Target Organism>
SARS coronavirus

>  <Target Description>
Target is a single protein chain

>  <Sequence Accession>
P0C6X7

>  <Reference>
Bioorg. Med. Chem. Lett. 21 (10), 3088-3091 (2011)

>  <Pubmed ID>
21470860

>  <DOI>
10.1016/j.bmcl.2011.03.034

>  <InChI-Key>
QFOLMPFZCVBCTJ-UHFFFAOYSA-N

>  <Molecular Formula>
C26H28N4O5

>  <Monoisotopic Mass>
476.205971

>  <Druglikeness>
2.1338

$$$$
Compound 433
Actelion Java MolfileCreator 1.0

 33 37  0  0  0  0  0  0  0  0999 V2000
    0.0000   -0.0000   -0.0000 O   0  0  0  0  0  0  0  0  0  0  0  0
   -1.3065   -0.7364   -0.0000 C   0  0  0  0  0  0  0  0  0  0  0  0
   -1.3065   -2.2210   -0.0000 O   0  0  0  0  0  0  0  0  0  0  0  0
   -2.6130    0.0119   -0.0000 C   0  0  0  0  0  0  0  0  0  0  0  0
   -3.9076    0.7958   -0.0000 C   0  0  0  0  0  0  0  0  0  0  0  0
   -2.6486   -1.4609   -0.0000 C   0  0  0  0  0  0  0  0  0  0  0  0
   -1.5084    1.0096   -0.0000 C   0  0  0  0  0  0  0  0  0  0  0  0
   -5.2141    0.0713   -0.0000 C   0  0  0  0  0  0  0  0  0  0  0  0
   -3.5750    2.2685   -0.0000 C   0  0  0  0  0  0  0  0  0  0  0  0
   -3.9670   -2.1854   -0.0000 C   0  0  0  0  0  0  0  0  0  0  0  0
   -2.0904    2.3873   -0.0000 C   0  0  0  0  0  0  0  0  0  0  0  0
   -5.2497   -1.4015   -0.0000 C   0  0  0  0  0  0  0  0  0  0  0  0
   -6.5205    0.8552   -0.0000 C   0  0  0  0  0  0  0  0  0  0  0  0
   -4.5727    3.4087   -0.0000 C   0  0  0  0  0  0  0  0  0  0  0  0
   -6.5562   -2.1260   -0.0000 C   0  0  0  0  0  0  0  0  0  0  0  0
   -5.2853   -2.8861   -0.0000 C   0  0  0  0  0  0  0  0  0  0  0  0
   -7.8389    0.1306   -0.0000 C   0  0  0  0  0  0  0  0  0  0  0  0
   -4.0976    4.8340   -0.0000 C   0  0  0  0  0  0  0  0  0  0  0  0
   -6.0573    3.1237   -0.0000 C   0  0  0  0  0  0  0  0  0  0  0  0
   -7.8627   -1.3540   -0.0000 C   0  0  0  0  0  0  0  0  0  0  0  0
   -6.5681   -3.6106   -0.0000 C   0  0  0  0  0  0  0  0  0  0  0  0
   -6.5799   -0.6176   -0.0000 C   0  0  0  0  0  0  0  0  0  0  0  0
   -9.1691   -2.0904   -0.0000 C   0  0  0  0  0  0  0  0  0  0  0  0
   -7.8864   -4.3470   -0.0000 C   0  0  0  0  0  0  0  0  0  0  0  0
   -9.1929   -3.5750   -0.0000 C   0  0  0  0  0  0  0  0  0  0  0  0
  -10.4756   -1.3184   -0.0000 C   0  0  0  0  0  0  0  0  0  0  0  0
   -9.1929   -0.5701   -0.0000 C   0  0  0  0  0  0  0  0  0  0  0  0
  -10.4756   -4.3114   -0.0000 C   0  0  0  0  0  0  0  0  0  0  0  0
  -11.7940   -2.0666   -0.0000 C   0  0  0  0  0  0  0  0  0  0  0  0
  -11.7940   -3.5513   -0.0000 C   0  0  0  0  0  0  0  0  0  0  0  0
  -11.2595   -5.5941   -0.0000 C   0  0  0  0  0  0  0  0  0  0  0  0
   -9.7511   -5.5941   -0.0000 C   0  0  0  0  0  0  0  0  0  0  0  0
  -13.1005   -4.2995   -0.0000 O   0  0  0  0  0  0  0  0  0  0  0  0
  1  2  2  0  0  0  0
  2  3  1  0  0  0  0
  4  2  1  6  0  0  0
  4  5  1  0  0  0  0
  4  6  1  0  0  0  0
  4  7  1  0  0  0  0
  5  8  1  6  0  0  0
  5  9  1  0  0  0  0
  6 10  1  0  0  0  0
  7 11  1  0  0  0  0
  8 12  1  0  0  0  0
  8 13  1  1  0  0  0
  9 14  1  1  0  0  0
 12 15  1  0  0  0  0
 12 16  1  1  0  0  0
 13 17  1  0  0  0  0
 14 18  2  0  0  0  0
 14 19  1  0  0  0  0
 15 20  1  0  0  0  0
 15 21  1  0  0  0  0
 15 22  1  6  0  0  0
 20 23  1  0  0  0  0
 21 24  1  0  0  0  0
 23 25  1  0  0  0  0
 23 26  1  0  0  0  0
 23 27  1  6  0  0  0
 25 28  1  0  0  0  0
 26 29  1  0  0  0  0
 28 30  1  0  0  0  0
 28 31  1  0  0  0  0
 28 32  1  0  0  0  0
 30 33  1  6  0  0  0
  9 11  1  0  0  0  0
 10 12  1  0  0  0  0
 20 17  1  6  0  0  0
 25 24  1  6  0  0  0
 29 30  1  0  0  0  0
M  END
>  <MolRegNo>
1763

>  <m>


>  <Value>
0

>  <Unit>


>  <Type>
Activity

>  <Ligand Efficiency>


>  <Binding Efficiency>


>  <Surface Efficiency>


>  <Assay Index>
294025

>  <Assay Category>


>  <Assay Organism>
SARS coronavirus

>  <Target ID>
100499

>  <Target Name>
SARS coronavirus

>  <Target Organism>
SARS coronavirus

>  <Target Description>
Target is a complete organism

>  <Sequence Accession>


>  <Reference>
J. Med. Chem. 50 (17), 4087-4095 (2007)

>  <Pubmed ID>
17663539

>  <DOI>
10.1021/jm070295s

>  <InChI-Key>
QGJZLNKBHJESQX-FVUNRJLTSA-N

>  <Molecular Formula>
C30H48O3

>  <Monoisotopic Mass>
456.360345

>  <Druglikeness>
-21.49

$$$$
Compound 434
Actelion Java MolfileCreator 1.0

 33 37  0  0  0  0  0  0  0  0999 V2000
    0.0000   -0.0000   -0.0000 O   0  0  0  0  0  0  0  0  0  0  0  0
   -1.3065   -0.7364   -0.0000 C   0  0  0  0  0  0  0  0  0  0  0  0
   -1.3065   -2.2210   -0.0000 O   0  0  0  0  0  0  0  0  0  0  0  0
   -2.6130    0.0119   -0.0000 C   0  0  0  0  0  0  0  0  0  0  0  0
   -3.9076    0.7958   -0.0000 C   0  0  0  0  0  0  0  0  0  0  0  0
   -2.6486   -1.4609   -0.0000 C   0  0  0  0  0  0  0  0  0  0  0  0
   -1.5084    1.0096   -0.0000 C   0  0  0  0  0  0  0  0  0  0  0  0
   -5.2141    0.0713   -0.0000 C   0  0  0  0  0  0  0  0  0  0  0  0
   -3.5750    2.2685   -0.0000 C   0  0  0  0  0  0  0  0  0  0  0  0
   -3.9670   -2.1854   -0.0000 C   0  0  0  0  0  0  0  0  0  0  0  0
   -2.0904    2.3873   -0.0000 C   0  0  0  0  0  0  0  0  0  0  0  0
   -5.2497   -1.4015   -0.0000 C   0  0  0  0  0  0  0  0  0  0  0  0
   -6.5205    0.8552   -0.0000 C   0  0  0  0  0  0  0  0  0  0  0  0
   -4.5727    3.4087   -0.0000 C   0  0  0  0  0  0  0  0  0  0  0  0
   -6.5562   -2.1260   -0.0000 C   0  0  0  0  0  0  0  0  0  0  0  0
   -5.2853   -2.8861   -0.0000 C   0  0  0  0  0  0  0  0  0  0  0  0
   -7.8389    0.1306   -0.0000 C   0  0  0  0  0  0  0  0  0  0  0  0
   -4.0976    4.8340   -0.0000 C   0  0  0  0  0  0  0  0  0  0  0  0
   -6.0573    3.1237   -0.0000 C   0  0  0  0  0  0  0  0  0  0  0  0
   -7.8627   -1.3540   -0.0000 C   0  0  0  0  0  0  0  0  0  0  0  0
   -6.5681   -3.6106   -0.0000 C   0  0  0  0  0  0  0  0  0  0  0  0
   -6.5799   -0.6176   -0.0000 C   0  0  0  0  0  0  0  0  0  0  0  0
   -9.1691   -2.0904   -0.0000 C   0  0  0  0  0  0  0  0  0  0  0  0
   -7.8864   -4.3470   -0.0000 C   0  0  0  0  0  0  0  0  0  0  0  0
   -9.1929   -3.5750   -0.0000 C   0  0  0  0  0  0  0  0  0  0  0  0
  -10.4756   -1.3184   -0.0000 C   0  0  0  0  0  0  0  0  0  0  0  0
   -9.1929   -0.5701   -0.0000 C   0  0  0  0  0  0  0  0  0  0  0  0
  -10.4756   -4.3114   -0.0000 C   0  0  0  0  0  0  0  0  0  0  0  0
  -11.7940   -2.0666   -0.0000 C   0  0  0  0  0  0  0  0  0  0  0  0
  -11.7940   -3.5513   -0.0000 C   0  0  0  0  0  0  0  0  0  0  0  0
  -11.2595   -5.5941   -0.0000 C   0  0  0  0  0  0  0  0  0  0  0  0
   -9.7511   -5.5941   -0.0000 C   0  0  0  0  0  0  0  0  0  0  0  0
  -13.1005   -4.2995   -0.0000 O   0  0  0  0  0  0  0  0  0  0  0  0
  1  2  2  0  0  0  0
  2  3  1  0  0  0  0
  4  2  1  6  0  0  0
  4  5  1  0  0  0  0
  4  6  1  0  0  0  0
  4  7  1  0  0  0  0
  5  8  1  6  0  0  0
  5  9  1  0  0  0  0
  6 10  1  0  0  0  0
  7 11  1  0  0  0  0
  8 12  1  0  0  0  0
  8 13  1  1  0  0  0
  9 14  1  1  0  0  0
 12 15  1  0  0  0  0
 12 16  1  1  0  0  0
 13 17  1  0  0  0  0
 14 18  2  0  0  0  0
 14 19  1  0  0  0  0
 15 20  1  0  0  0  0
 15 21  1  0  0  0  0
 15 22  1  6  0  0  0
 20 23  1  0  0  0  0
 21 24  1  0  0  0  0
 23 25  1  0  0  0  0
 23 26  1  0  0  0  0
 23 27  1  6  0  0  0
 25 28  1  0  0  0  0
 26 29  1  0  0  0  0
 28 30  1  0  0  0  0
 28 31  1  0  0  0  0
 28 32  1  0  0  0  0
 30 33  1  6  0  0  0
  9 11  1  0  0  0  0
 10 12  1  0  0  0  0
 20 17  1  6  0  0  0
 25 24  1  6  0  0  0
 29 30  1  0  0  0  0
M  END
>  <MolRegNo>
1763

>  <m>
>

>  <Value>
10000

>  <Unit>
nM

>  <Type>
EC50

>  <Ligand Efficiency>


>  <Binding Efficiency>


>  <Surface Efficiency>


>  <Assay Index>
294026

>  <Assay Category>


>  <Assay Organism>
SARS coronavirus

>  <Target ID>
100499

>  <Target Name>
SARS coronavirus

>  <Target Organism>
SARS coronavirus

>  <Target Description>
Target is a complete organism

>  <Sequence Accession>


>  <Reference>
J. Med. Chem. 50 (17), 4087-4095 (2007)

>  <Pubmed ID>
17663539

>  <DOI>
10.1021/jm070295s

>  <InChI-Key>
QGJZLNKBHJESQX-FVUNRJLTSA-N

>  <Molecular Formula>
C30H48O3

>  <Monoisotopic Mass>
456.360345

>  <Druglikeness>
-21.49

$$$$
Compound 435
Actelion Java MolfileCreator 1.0

 33 37  0  0  0  0  0  0  0  0999 V2000
    0.0000   -0.0000   -0.0000 O   0  0  0  0  0  0  0  0  0  0  0  0
   -1.3065   -0.7364   -0.0000 C   0  0  0  0  0  0  0  0  0  0  0  0
   -1.3065   -2.2210   -0.0000 O   0  0  0  0  0  0  0  0  0  0  0  0
   -2.6130    0.0119   -0.0000 C   0  0  0  0  0  0  0  0  0  0  0  0
   -3.9076    0.7958   -0.0000 C   0  0  0  0  0  0  0  0  0  0  0  0
   -2.6486   -1.4609   -0.0000 C   0  0  0  0  0  0  0  0  0  0  0  0
   -1.5084    1.0096   -0.0000 C   0  0  0  0  0  0  0  0  0  0  0  0
   -5.2141    0.0713   -0.0000 C   0  0  0  0  0  0  0  0  0  0  0  0
   -3.5750    2.2685   -0.0000 C   0  0  0  0  0  0  0  0  0  0  0  0
   -3.9670   -2.1854   -0.0000 C   0  0  0  0  0  0  0  0  0  0  0  0
   -2.0904    2.3873   -0.0000 C   0  0  0  0  0  0  0  0  0  0  0  0
   -5.2497   -1.4015   -0.0000 C   0  0  0  0  0  0  0  0  0  0  0  0
   -6.5205    0.8552   -0.0000 C   0  0  0  0  0  0  0  0  0  0  0  0
   -4.5727    3.4087   -0.0000 C   0  0  0  0  0  0  0  0  0  0  0  0
   -6.5562   -2.1260   -0.0000 C   0  0  0  0  0  0  0  0  0  0  0  0
   -5.2853   -2.8861   -0.0000 C   0  0  0  0  0  0  0  0  0  0  0  0
   -7.8389    0.1306   -0.0000 C   0  0  0  0  0  0  0  0  0  0  0  0
   -4.0976    4.8340   -0.0000 C   0  0  0  0  0  0  0  0  0  0  0  0
   -6.0573    3.1237   -0.0000 C   0  0  0  0  0  0  0  0  0  0  0  0
   -7.8627   -1.3540   -0.0000 C   0  0  0  0  0  0  0  0  0  0  0  0
   -6.5681   -3.6106   -0.0000 C   0  0  0  0  0  0  0  0  0  0  0  0
   -6.5799   -0.6176   -0.0000 C   0  0  0  0  0  0  0  0  0  0  0  0
   -9.1691   -2.0904   -0.0000 C   0  0  0  0  0  0  0  0  0  0  0  0
   -7.8864   -4.3470   -0.0000 C   0  0  0  0  0  0  0  0  0  0  0  0
   -9.1929   -3.5750   -0.0000 C   0  0  0  0  0  0  0  0  0  0  0  0
  -10.4756   -1.3184   -0.0000 C   0  0  0  0  0  0  0  0  0  0  0  0
   -9.1929   -0.5701   -0.0000 C   0  0  0  0  0  0  0  0  0  0  0  0
  -10.4756   -4.3114   -0.0000 C   0  0  0  0  0  0  0  0  0  0  0  0
  -11.7940   -2.0666   -0.0000 C   0  0  0  0  0  0  0  0  0  0  0  0
  -11.7940   -3.5513   -0.0000 C   0  0  0  0  0  0  0  0  0  0  0  0
  -11.2595   -5.5941   -0.0000 C   0  0  0  0  0  0  0  0  0  0  0  0
   -9.7511   -5.5941   -0.0000 C   0  0  0  0  0  0  0  0  0  0  0  0
  -13.1005   -4.2995   -0.0000 O   0  0  0  0  0  0  0  0  0  0  0  0
  1  2  2  0  0  0  0
  2  3  1  0  0  0  0
  4  2  1  6  0  0  0
  4  5  1  0  0  0  0
  4  6  1  0  0  0  0
  4  7  1  0  0  0  0
  5  8  1  6  0  0  0
  5  9  1  0  0  0  0
  6 10  1  0  0  0  0
  7 11  1  0  0  0  0
  8 12  1  0  0  0  0
  8 13  1  1  0  0  0
  9 14  1  1  0  0  0
 12 15  1  0  0  0  0
 12 16  1  1  0  0  0
 13 17  1  0  0  0  0
 14 18  2  0  0  0  0
 14 19  1  0  0  0  0
 15 20  1  0  0  0  0
 15 21  1  0  0  0  0
 15 22  1  6  0  0  0
 20 23  1  0  0  0  0
 21 24  1  0  0  0  0
 23 25  1  0  0  0  0
 23 26  1  0  0  0  0
 23 27  1  6  0  0  0
 25 28  1  0  0  0  0
 26 29  1  0  0  0  0
 28 30  1  0  0  0  0
 28 31  1  0  0  0  0
 28 32  1  0  0  0  0
 30 33  1  6  0  0  0
  9 11  1  0  0  0  0
 10 12  1  0  0  0  0
 20 17  1  6  0  0  0
 25 24  1  6  0  0  0
 29 30  1  0  0  0  0
M  END
>  <MolRegNo>
1763

>  <m>
=

>  <Value>
50

>  <Unit>
%

>  <Type>
Inhibition

>  <Ligand Efficiency>


>  <Binding Efficiency>


>  <Surface Efficiency>


>  <Assay Index>
294024

>  <Assay Category>


>  <Assay Organism>
SARS coronavirus

>  <Target ID>
100499

>  <Target Name>
SARS coronavirus

>  <Target Organism>
SARS coronavirus

>  <Target Description>
Target is a complete organism

>  <Sequence Accession>


>  <Reference>
J. Med. Chem. 50 (17), 4087-4095 (2007)

>  <Pubmed ID>
17663539

>  <DOI>
10.1021/jm070295s

>  <InChI-Key>
QGJZLNKBHJESQX-FVUNRJLTSA-N

>  <Molecular Formula>
C30H48O3

>  <Monoisotopic Mass>
456.360345

>  <Druglikeness>
-21.49

$$$$
Compound 436
Actelion Java MolfileCreator 1.0

 33 37  0  0  0  0  0  0  0  0999 V2000
    0.0000   -0.0000   -0.0000 O   0  0  0  0  0  0  0  0  0  0  0  0
   -1.3065   -0.7364   -0.0000 C   0  0  0  0  0  0  0  0  0  0  0  0
   -1.3065   -2.2210   -0.0000 O   0  0  0  0  0  0  0  0  0  0  0  0
   -2.6130    0.0119   -0.0000 C   0  0  0  0  0  0  0  0  0  0  0  0
   -3.9076    0.7958   -0.0000 C   0  0  0  0  0  0  0  0  0  0  0  0
   -2.6486   -1.4609   -0.0000 C   0  0  0  0  0  0  0  0  0  0  0  0
   -1.5084    1.0096   -0.0000 C   0  0  0  0  0  0  0  0  0  0  0  0
   -5.2141    0.0713   -0.0000 C   0  0  0  0  0  0  0  0  0  0  0  0
   -3.5750    2.2685   -0.0000 C   0  0  0  0  0  0  0  0  0  0  0  0
   -3.9670   -2.1854   -0.0000 C   0  0  0  0  0  0  0  0  0  0  0  0
   -2.0904    2.3873   -0.0000 C   0  0  0  0  0  0  0  0  0  0  0  0
   -5.2497   -1.4015   -0.0000 C   0  0  0  0  0  0  0  0  0  0  0  0
   -6.5205    0.8552   -0.0000 C   0  0  0  0  0  0  0  0  0  0  0  0
   -4.5727    3.4087   -0.0000 C   0  0  0  0  0  0  0  0  0  0  0  0
   -6.5562   -2.1260   -0.0000 C   0  0  0  0  0  0  0  0  0  0  0  0
   -5.2853   -2.8861   -0.0000 C   0  0  0  0  0  0  0  0  0  0  0  0
   -7.8389    0.1306   -0.0000 C   0  0  0  0  0  0  0  0  0  0  0  0
   -4.0976    4.8340   -0.0000 C   0  0  0  0  0  0  0  0  0  0  0  0
   -6.0573    3.1237   -0.0000 C   0  0  0  0  0  0  0  0  0  0  0  0
   -7.8627   -1.3540   -0.0000 C   0  0  0  0  0  0  0  0  0  0  0  0
   -6.5681   -3.6106   -0.0000 C   0  0  0  0  0  0  0  0  0  0  0  0
   -6.5799   -0.6176   -0.0000 C   0  0  0  0  0  0  0  0  0  0  0  0
   -9.1691   -2.0904   -0.0000 C   0  0  0  0  0  0  0  0  0  0  0  0
   -7.8864   -4.3470   -0.0000 C   0  0  0  0  0  0  0  0  0  0  0  0
   -9.1929   -3.5750   -0.0000 C   0  0  0  0  0  0  0  0  0  0  0  0
  -10.4756   -1.3184   -0.0000 C   0  0  0  0  0  0  0  0  0  0  0  0
   -9.1929   -0.5701   -0.0000 C   0  0  0  0  0  0  0  0  0  0  0  0
  -10.4756   -4.3114   -0.0000 C   0  0  0  0  0  0  0  0  0  0  0  0
  -11.7940   -2.0666   -0.0000 C   0  0  0  0  0  0  0  0  0  0  0  0
  -11.7940   -3.5513   -0.0000 C   0  0  0  0  0  0  0  0  0  0  0  0
  -11.2595   -5.5941   -0.0000 C   0  0  0  0  0  0  0  0  0  0  0  0
   -9.7511   -5.5941   -0.0000 C   0  0  0  0  0  0  0  0  0  0  0  0
  -13.1005   -4.2995   -0.0000 O   0  0  0  0  0  0  0  0  0  0  0  0
  1  2  2  0  0  0  0
  2  3  1  0  0  0  0
  4  2  1  6  0  0  0
  4  5  1  0  0  0  0
  4  6  1  0  0  0  0
  4  7  1  0  0  0  0
  5  8  1  6  0  0  0
  5  9  1  0  0  0  0
  6 10  1  0  0  0  0
  7 11  1  0  0  0  0
  8 12  1  0  0  0  0
  8 13  1  1  0  0  0
  9 14  1  1  0  0  0
 12 15  1  0  0  0  0
 12 16  1  1  0  0  0
 13 17  1  0  0  0  0
 14 18  2  0  0  0  0
 14 19  1  0  0  0  0
 15 20  1  0  0  0  0
 15 21  1  0  0  0  0
 15 22  1  6  0  0  0
 20 23  1  0  0  0  0
 21 24  1  0  0  0  0
 23 25  1  0  0  0  0
 23 26  1  0  0  0  0
 23 27  1  6  0  0  0
 25 28  1  0  0  0  0
 26 29  1  0  0  0  0
 28 30  1  0  0  0  0
 28 31  1  0  0  0  0
 28 32  1  0  0  0  0
 30 33  1  6  0  0  0
  9 11  1  0  0  0  0
 10 12  1  0  0  0  0
 20 17  1  6  0  0  0
 25 24  1  6  0  0  0
 29 30  1  0  0  0  0
M  END
>  <MolRegNo>
1763

>  <m>
<

>  <Value>
25

>  <Unit>
%

>  <Type>
Inhibition

>  <Ligand Efficiency>


>  <Binding Efficiency>


>  <Surface Efficiency>


>  <Assay Index>
294022

>  <Assay Category>


>  <Assay Organism>
SARS coronavirus

>  <Target ID>
100499

>  <Target Name>
SARS coronavirus

>  <Target Organism>
SARS coronavirus

>  <Target Description>
Target is a complete organism

>  <Sequence Accession>


>  <Reference>
J. Med. Chem. 50 (17), 4087-4095 (2007)

>  <Pubmed ID>
17663539

>  <DOI>
10.1021/jm070295s

>  <InChI-Key>
QGJZLNKBHJESQX-FVUNRJLTSA-N

>  <Molecular Formula>
C30H48O3

>  <Monoisotopic Mass>
456.360345

>  <Druglikeness>
-21.49

$$$$
Compound 437
Actelion Java MolfileCreator 1.0

 33 37  0  0  0  0  0  0  0  0999 V2000
    0.0000   -0.0000   -0.0000 O   0  0  0  0  0  0  0  0  0  0  0  0
   -1.3065   -0.7364   -0.0000 C   0  0  0  0  0  0  0  0  0  0  0  0
   -1.3065   -2.2210   -0.0000 O   0  0  0  0  0  0  0  0  0  0  0  0
   -2.6130    0.0119   -0.0000 C   0  0  0  0  0  0  0  0  0  0  0  0
   -3.9076    0.7958   -0.0000 C   0  0  0  0  0  0  0  0  0  0  0  0
   -2.6486   -1.4609   -0.0000 C   0  0  0  0  0  0  0  0  0  0  0  0
   -1.5084    1.0096   -0.0000 C   0  0  0  0  0  0  0  0  0  0  0  0
   -5.2141    0.0713   -0.0000 C   0  0  0  0  0  0  0  0  0  0  0  0
   -3.5750    2.2685   -0.0000 C   0  0  0  0  0  0  0  0  0  0  0  0
   -3.9670   -2.1854   -0.0000 C   0  0  0  0  0  0  0  0  0  0  0  0
   -2.0904    2.3873   -0.0000 C   0  0  0  0  0  0  0  0  0  0  0  0
   -5.2497   -1.4015   -0.0000 C   0  0  0  0  0  0  0  0  0  0  0  0
   -6.5205    0.8552   -0.0000 C   0  0  0  0  0  0  0  0  0  0  0  0
   -4.5727    3.4087   -0.0000 C   0  0  0  0  0  0  0  0  0  0  0  0
   -6.5562   -2.1260   -0.0000 C   0  0  0  0  0  0  0  0  0  0  0  0
   -5.2853   -2.8861   -0.0000 C   0  0  0  0  0  0  0  0  0  0  0  0
   -7.8389    0.1306   -0.0000 C   0  0  0  0  0  0  0  0  0  0  0  0
   -4.0976    4.8340   -0.0000 C   0  0  0  0  0  0  0  0  0  0  0  0
   -6.0573    3.1237   -0.0000 C   0  0  0  0  0  0  0  0  0  0  0  0
   -7.8627   -1.3540   -0.0000 C   0  0  0  0  0  0  0  0  0  0  0  0
   -6.5681   -3.6106   -0.0000 C   0  0  0  0  0  0  0  0  0  0  0  0
   -6.5799   -0.6176   -0.0000 C   0  0  0  0  0  0  0  0  0  0  0  0
   -9.1691   -2.0904   -0.0000 C   0  0  0  0  0  0  0  0  0  0  0  0
   -7.8864   -4.3470   -0.0000 C   0  0  0  0  0  0  0  0  0  0  0  0
   -9.1929   -3.5750   -0.0000 C   0  0  0  0  0  0  0  0  0  0  0  0
  -10.4756   -1.3184   -0.0000 C   0  0  0  0  0  0  0  0  0  0  0  0
   -9.1929   -0.5701   -0.0000 C   0  0  0  0  0  0  0  0  0  0  0  0
  -10.4756   -4.3114   -0.0000 C   0  0  0  0  0  0  0  0  0  0  0  0
  -11.7940   -2.0666   -0.0000 C   0  0  0  0  0  0  0  0  0  0  0  0
  -11.7940   -3.5513   -0.0000 C   0  0  0  0  0  0  0  0  0  0  0  0
  -11.2595   -5.5941   -0.0000 C   0  0  0  0  0  0  0  0  0  0  0  0
   -9.7511   -5.5941   -0.0000 C   0  0  0  0  0  0  0  0  0  0  0  0
  -13.1005   -4.2995   -0.0000 O   0  0  0  0  0  0  0  0  0  0  0  0
  1  2  2  0  0  0  0
  2  3  1  0  0  0  0
  4  2  1  6  0  0  0
  4  5  1  0  0  0  0
  4  6  1  0  0  0  0
  4  7  1  0  0  0  0
  5  8  1  6  0  0  0
  5  9  1  0  0  0  0
  6 10  1  0  0  0  0
  7 11  1  0  0  0  0
  8 12  1  0  0  0  0
  8 13  1  1  0  0  0
  9 14  1  1  0  0  0
 12 15  1  0  0  0  0
 12 16  1  1  0  0  0
 13 17  1  0  0  0  0
 14 18  2  0  0  0  0
 14 19  1  0  0  0  0
 15 20  1  0  0  0  0
 15 21  1  0  0  0  0
 15 22  1  6  0  0  0
 20 23  1  0  0  0  0
 21 24  1  0  0  0  0
 23 25  1  0  0  0  0
 23 26  1  0  0  0  0
 23 27  1  6  0  0  0
 25 28  1  0  0  0  0
 26 29  1  0  0  0  0
 28 30  1  0  0  0  0
 28 31  1  0  0  0  0
 28 32  1  0  0  0  0
 30 33  1  6  0  0  0
  9 11  1  0  0  0  0
 10 12  1  0  0  0  0
 20 17  1  6  0  0  0
 25 24  1  6  0  0  0
 29 30  1  0  0  0  0
M  END
>  <MolRegNo>
1763

>  <m>
=

>  <Value>
25

>  <Unit>
%

>  <Type>
Inhibition

>  <Ligand Efficiency>


>  <Binding Efficiency>


>  <Surface Efficiency>


>  <Assay Index>
294023

>  <Assay Category>


>  <Assay Organism>
SARS coronavirus

>  <Target ID>
100499

>  <Target Name>
SARS coronavirus

>  <Target Organism>
SARS coronavirus

>  <Target Description>
Target is a complete organism

>  <Sequence Accession>


>  <Reference>
J. Med. Chem. 50 (17), 4087-4095 (2007)

>  <Pubmed ID>
17663539

>  <DOI>
10.1021/jm070295s

>  <InChI-Key>
QGJZLNKBHJESQX-FVUNRJLTSA-N

>  <Molecular Formula>
C30H48O3

>  <Monoisotopic Mass>
456.360345

>  <Druglikeness>
-21.49

$$$$
Compound 438
Actelion Java MolfileCreator 1.0

 21 24  0  0  0  0  0  0  0  0999 V2000
    0.0000   -0.0000   -0.0000 S   0  0  0  0  0  0  0  0  0  0  0  0
   -1.3049   -0.7289   -0.0000 C   0  0  0  0  0  0  0  0  0  0  0  0
   -0.3292    1.4695   -0.0000 C   0  0  0  0  0  0  0  0  0  0  0  0
   -2.4217    0.2939   -0.0000 C   0  0  0  0  0  0  0  0  0  0  0  0
   -1.6223   -2.1631   -0.0000 C   0  0  0  0  0  0  0  0  0  0  0  0
   -1.8222    1.6341   -0.0000 C   0  0  0  0  0  0  0  0  0  0  0  0
    0.6583    2.5863   -0.0000 C   0  0  0  0  0  0  0  0  0  0  0  0
   -3.8560   -0.1411   -0.0000 C   0  0  0  0  0  0  0  0  0  0  0  0
   -3.0566   -2.6098   -0.0000 C   0  0  0  0  0  0  0  0  0  0  0  0
    0.1763    4.0206   -0.0000 N   0  0  0  0  0  0  0  0  0  0  0  0
   -4.1852   -1.5988   -0.0000 C   0  0  0  0  0  0  0  0  0  0  0  0
    1.0463    5.2314   -0.0000 C   0  0  0  0  0  0  0  0  0  0  0  0
   -1.2461    4.4791   -0.0000 C   0  0  0  0  0  0  0  0  0  0  0  0
    2.5276    5.2432   -0.0000 O   0  0  0  0  0  0  0  0  0  0  0  0
    0.1528    6.4658   -0.0000 C   0  0  0  0  0  0  0  0  0  0  0  0
   -1.2579    5.9838   -0.0000 C   0  0  0  0  0  0  0  0  0  0  0  0
   -2.5628    3.7384   -0.0000 C   0  0  0  0  0  0  0  0  0  0  0  0
    0.6113    7.8883   -0.0000 O   0  0  0  0  0  0  0  0  0  0  0  0
   -2.5746    6.7480   -0.0000 C   0  0  0  0  0  0  0  0  0  0  0  0
   -3.8677    4.5026   -0.0000 C   0  0  0  0  0  0  0  0  0  0  0  0
   -3.8795    6.0073   -0.0000 C   0  0  0  0  0  0  0  0  0  0  0  0
  1  2  1  0  0  0  0
  1  3  1  0  0  0  0
  2  4  2  0  0  0  0
  2  5  1  0  0  0  0
  3  6  2  0  0  0  0
  3  7  1  0  0  0  0
  4  8  1  0  0  0  0
  5  9  2  0  0  0  0
  7 10  1  0  0  0  0
  8 11  2  0  0  0  0
 10 12  1  0  0  0  0
 10 13  1  0  0  0  0
 12 14  2  0  0  0  0
 12 15  1  0  0  0  0
 13 16  2  0  0  0  0
 13 17  1  0  0  0  0
 15 18  2  0  0  0  0
 16 19  1  0  0  0  0
 17 20  2  0  0  0  0
 19 21  2  0  0  0  0
  4  6  1  0  0  0  0
  9 11  1  0  0  0  0
 15 16  1  0  0  0  0
 20 21  1  0  0  0  0
M  END
>  <MolRegNo>
316296

>  <m>
=

>  <Value>
13110

>  <Unit>
nM

>  <Type>
IC50

>  <Ligand Efficiency>
0.32

>  <Binding Efficiency>
16.64

>  <Surface Efficiency>
13.06

>  <Assay Index>
238671

>  <Assay Category>


>  <Assay Organism>
SARS coronavirus

>  <Target ID>
20012

>  <Target Name>
SARS coronavirus 3C-like proteinase

>  <Target Organism>
SARS coronavirus

>  <Target Description>
Target is a single protein chain

>  <Sequence Accession>
P0C6U8

>  <Reference>
Bioorg. Med. Chem. Lett. 15 (12), 3058-3062 (2005)

>  <Pubmed ID>
15896959

>  <DOI>
10.1016/j.bmcl.2005.04.027

>  <InChI-Key>
QGWPMYZWJXKBHT-UHFFFAOYSA-N

>  <Molecular Formula>
C17H11NO2S

>  <Monoisotopic Mass>
293.051049

>  <Druglikeness>
1.2614

$$$$
Compound 439
Actelion Java MolfileCreator 1.0

 29 32  0  0  0  0  0  0  0  0999 V2000
    0.0000   -0.0000   -0.0000 I   0  0  0  0  0  0  0  0  0  0  0  0
    1.2965   -0.7374   -0.0000 C   0  0  0  0  0  0  0  0  0  0  0  0
    2.5929    0.0238   -0.0000 C   0  0  0  0  0  0  0  0  0  0  0  0
    1.2846   -2.2361   -0.0000 C   0  0  0  0  0  0  0  0  0  0  0  0
    3.8894   -0.7136   -0.0000 C   0  0  0  0  0  0  0  0  0  0  0  0
    2.5810   -2.9735   -0.0000 C   0  0  0  0  0  0  0  0  0  0  0  0
    5.3166   -0.2260   -0.0000 C   0  0  0  0  0  0  0  0  0  0  0  0
    3.8775   -2.2123   -0.0000 C   0  0  0  0  0  0  0  0  0  0  0  0
    5.7567    1.2132   -0.0000 O   0  0  0  0  0  0  0  0  0  0  0  0
    6.1968   -1.4511   -0.0000 C   0  0  0  0  0  0  0  0  0  0  0  0
    5.3047   -2.6524   -0.0000 N   0  0  0  0  0  0  0  0  0  0  0  0
    7.6955   -1.4392   -0.0000 O   0  0  0  0  0  0  0  0  0  0  0  0
    5.7686   -4.0797   -0.0000 C   0  0  0  0  0  0  0  0  0  0  0  0
    7.2316   -4.3889   -0.0000 C   0  0  0  0  0  0  0  0  0  0  0  0
    8.3377   -3.3660   -0.0000 S   0  0  0  0  0  0  0  0  0  0  0  0
    7.8263   -5.7448   -0.0000 C   0  0  0  0  0  0  0  0  0  0  0  0
    9.6342   -4.1034   -0.0000 C   0  0  0  0  0  0  0  0  0  0  0  0
    9.3130   -5.5783   -0.0000 C   0  0  0  0  0  0  0  0  0  0  0  0
   10.9901   -3.4731   -0.0000 C   0  0  0  0  0  0  0  0  0  0  0  0
   11.1328   -1.9625   -0.0000 O   0  0  0  0  0  0  0  0  0  0  0  0
   12.2033   -4.3413   -0.0000 N   0  0  0  0  0  0  0  0  0  0  0  0
   13.5711   -3.7228   -0.0000 C   0  0  0  0  0  0  0  0  0  0  0  0
   14.7724   -4.6030   -0.0000 C   0  0  0  0  0  0  0  0  0  0  0  0
   13.7019   -2.2123   -0.0000 C   0  0  0  0  0  0  0  0  0  0  0  0
   14.6059   -6.0898   -0.0000 F   0  0  0  0  0  0  0  0  0  0  0  0
   16.1283   -3.9726   -0.0000 C   0  0  0  0  0  0  0  0  0  0  0  0
   15.0579   -1.5819   -0.0000 C   0  0  0  0  0  0  0  0  0  0  0  0
   16.2711   -2.4621   -0.0000 C   0  0  0  0  0  0  0  0  0  0  0  0
   17.6508   -1.8317   -0.0000 F   0  0  0  0  0  0  0  0  0  0  0  0
  1  2  1  0  0  0  0
  2  3  2  0  0  0  0
  2  4  1  0  0  0  0
  3  5  1  0  0  0  0
  4  6  2  0  0  0  0
  5  7  1  0  0  0  0
  5  8  2  0  0  0  0
  7  9  2  0  0  0  0
  7 10  1  0  0  0  0
  8 11  1  0  0  0  0
 10 12  2  0  0  0  0
 11 13  1  0  0  0  0
 13 14  1  0  0  0  0
 14 15  1  0  0  0  0
 14 16  2  0  0  0  0
 15 17  1  0  0  0  0
 16 18  1  0  0  0  0
 17 19  1  0  0  0  0
 19 20  2  0  0  0  0
 19 21  1  0  0  0  0
 21 22  1  0  0  0  0
 22 23  2  0  0  0  0
 22 24  1  0  0  0  0
 23 25  1  0  0  0  0
 23 26  1  0  0  0  0
 24 27  2  0  0  0  0
 26 28  2  0  0  0  0
 28 29  1  0  0  0  0
  6  8  1  0  0  0  0
 10 11  1  0  0  0  0
 17 18  2  0  0  0  0
 27 28  1  0  0  0  0
M  END
>  <MolRegNo>
317254

>  <m>
=

>  <Value>
32

>  <Unit>
%

>  <Type>
Inhibition

>  <Ligand Efficiency>


>  <Binding Efficiency>


>  <Surface Efficiency>


>  <Assay Index>
240686

>  <Assay Category>


>  <Assay Organism>
SARS coronavirus

>  <Target ID>
20012

>  <Target Name>
SARS coronavirus 3C-like proteinase

>  <Target Organism>
SARS coronavirus

>  <Target Description>
Target is a single protein chain

>  <Sequence Accession>
P0C6U8

>  <Reference>
Bioorg. Med. Chem. Lett. 15 (12), 3058-3062 (2005)

>  <Pubmed ID>
15896959

>  <DOI>
10.1016/j.bmcl.2005.04.027

>  <InChI-Key>
QHBQXDUBPFCVNE-UHFFFAOYSA-N

>  <Molecular Formula>
C20H11N2O3F2IS

>  <Monoisotopic Mass>
523.950317

>  <Druglikeness>
1.0213

$$$$
Compound 440
Actelion Java MolfileCreator 1.0

 19 21  0  0  0  0  0  0  0  0999 V2000
    0.0000   -0.0000   -0.0000 Cl  0  0  0  0  0  0  0  0  0  0  0  0
   -1.3033   -0.7464   -0.0000 C   0  0  0  0  0  0  0  0  0  0  0  0
   -1.3152   -2.2393   -0.0000 C   0  0  0  0  0  0  0  0  0  0  0  0
   -2.6066    0.0118   -0.0000 C   0  0  0  0  0  0  0  0  0  0  0  0
   -2.6303   -2.9739   -0.0000 N   0  0  0  0  0  0  0  0  0  0  0  0
   -3.9100   -0.7228   -0.0000 C   0  0  0  0  0  0  0  0  0  0  0  0
   -3.9337   -2.2156   -0.0000 C   0  0  0  0  0  0  0  0  0  0  0  0
   -5.2133    0.0355   -0.0000 O   0  0  0  0  0  0  0  0  0  0  0  0
   -6.5166   -0.6991   -0.0000 C   0  0  0  0  0  0  0  0  0  0  0  0
   -6.5284   -2.1801   -0.0000 O   0  0  0  0  0  0  0  0  0  0  0  0
   -7.8199    0.0592   -0.0000 C   0  0  0  0  0  0  0  0  0  0  0  0
   -9.1943   -0.5332   -0.0000 O   0  0  0  0  0  0  0  0  0  0  0  0
   -7.9858    1.5521   -0.0000 C   0  0  0  0  0  0  0  0  0  0  0  0
  -10.2014    0.5924   -0.0000 C   0  0  0  0  0  0  0  0  0  0  0  0
   -9.4550    1.8720   -0.0000 C   0  0  0  0  0  0  0  0  0  0  0  0
  -11.7062    0.6043   -0.0000 C   0  0  0  0  0  0  0  0  0  0  0  0
  -10.2133    3.1754   -0.0000 C   0  0  0  0  0  0  0  0  0  0  0  0
  -12.4645    1.9076   -0.0000 C   0  0  0  0  0  0  0  0  0  0  0  0
  -11.7180    3.1872   -0.0000 C   0  0  0  0  0  0  0  0  0  0  0  0
  1  2  1  0  0  0  0
  2  3  2  0  0  0  0
  2  4  1  0  0  0  0
  3  5  1  0  0  0  0
  4  6  2  0  0  0  0
  5  7  2  0  0  0  0
  6  8  1  0  0  0  0
  8  9  1  0  0  0  0
  9 10  2  0  0  0  0
  9 11  1  0  0  0  0
 11 12  1  0  0  0  0
 11 13  2  0  0  0  0
 12 14  1  0  0  0  0
 13 15  1  0  0  0  0
 14 16  1  0  0  0  0
 15 17  1  0  0  0  0
 16 18  2  0  0  0  0
 17 19  2  0  0  0  0
  6  7  1  0  0  0  0
 14 15  2  0  0  0  0
 18 19  1  0  0  0  0
M  END
>  <MolRegNo>
371860

>  <m>
=

>  <Value>
170

>  <Unit>
nM

>  <Type>
IC50

>  <Ligand Efficiency>
0.49

>  <Binding Efficiency>
24.74

>  <Surface Efficiency>
12.94

>  <Assay Index>
278391

>  <Assay Category>


>  <Assay Organism>
SARS coronavirus

>  <Target ID>
20012

>  <Target Name>
SARS coronavirus 3C-like proteinase

>  <Target Organism>
SARS coronavirus

>  <Target Description>
Target is a single protein chain

>  <Sequence Accession>
P0C6U8

>  <Reference>
J. Med. Chem. 50 (8), 1850-1864 (2007)

>  <Pubmed ID>
17381079

>  <DOI>
10.1021/jm061425k

>  <InChI-Key>
QHBWMDVARYUYJW-UHFFFAOYSA-N

>  <Molecular Formula>
C14H8NO3Cl

>  <Monoisotopic Mass>
273.019271

>  <Druglikeness>
-0.28712

$$$$
Compound 441
Actelion Java MolfileCreator 1.0

 19 21  0  0  0  0  0  0  0  0999 V2000
    0.0000   -0.0000   -0.0000 Cl  0  0  0  0  0  0  0  0  0  0  0  0
   -1.3033   -0.7464   -0.0000 C   0  0  0  0  0  0  0  0  0  0  0  0
   -1.3152   -2.2393   -0.0000 C   0  0  0  0  0  0  0  0  0  0  0  0
   -2.6066    0.0118   -0.0000 C   0  0  0  0  0  0  0  0  0  0  0  0
   -2.6303   -2.9739   -0.0000 N   0  0  0  0  0  0  0  0  0  0  0  0
   -3.9100   -0.7228   -0.0000 C   0  0  0  0  0  0  0  0  0  0  0  0
   -3.9337   -2.2156   -0.0000 C   0  0  0  0  0  0  0  0  0  0  0  0
   -5.2133    0.0355   -0.0000 O   0  0  0  0  0  0  0  0  0  0  0  0
   -6.5166   -0.6991   -0.0000 C   0  0  0  0  0  0  0  0  0  0  0  0
   -6.5284   -2.1801   -0.0000 O   0  0  0  0  0  0  0  0  0  0  0  0
   -7.8199    0.0592   -0.0000 C   0  0  0  0  0  0  0  0  0  0  0  0
   -9.1943   -0.5332   -0.0000 O   0  0  0  0  0  0  0  0  0  0  0  0
   -7.9858    1.5521   -0.0000 C   0  0  0  0  0  0  0  0  0  0  0  0
  -10.2014    0.5924   -0.0000 C   0  0  0  0  0  0  0  0  0  0  0  0
   -9.4550    1.8720   -0.0000 C   0  0  0  0  0  0  0  0  0  0  0  0
  -11.7062    0.6043   -0.0000 C   0  0  0  0  0  0  0  0  0  0  0  0
  -10.2133    3.1754   -0.0000 C   0  0  0  0  0  0  0  0  0  0  0  0
  -12.4645    1.9076   -0.0000 C   0  0  0  0  0  0  0  0  0  0  0  0
  -11.7180    3.1872   -0.0000 C   0  0  0  0  0  0  0  0  0  0  0  0
  1  2  1  0  0  0  0
  2  3  2  0  0  0  0
  2  4  1  0  0  0  0
  3  5  1  0  0  0  0
  4  6  2  0  0  0  0
  5  7  2  0  0  0  0
  6  8  1  0  0  0  0
  8  9  1  0  0  0  0
  9 10  2  0  0  0  0
  9 11  1  0  0  0  0
 11 12  1  0  0  0  0
 11 13  2  0  0  0  0
 12 14  1  0  0  0  0
 13 15  1  0  0  0  0
 14 16  1  0  0  0  0
 15 17  1  0  0  0  0
 16 18  2  0  0  0  0
 17 19  2  0  0  0  0
  6  7  1  0  0  0  0
 14 15  2  0  0  0  0
 18 19  1  0  0  0  0
M  END
>  <MolRegNo>
371860

>  <m>
=

>  <Value>
94

>  <Unit>
%

>  <Type>
Inhibition

>  <Ligand Efficiency>


>  <Binding Efficiency>


>  <Surface Efficiency>


>  <Assay Index>
278390

>  <Assay Category>


>  <Assay Organism>
SARS coronavirus

>  <Target ID>
20012

>  <Target Name>
SARS coronavirus 3C-like proteinase

>  <Target Organism>
SARS coronavirus

>  <Target Description>
Target is a single protein chain

>  <Sequence Accession>
P0C6U8

>  <Reference>
J. Med. Chem. 50 (8), 1850-1864 (2007)

>  <Pubmed ID>
17381079

>  <DOI>
10.1021/jm061425k

>  <InChI-Key>
QHBWMDVARYUYJW-UHFFFAOYSA-N

>  <Molecular Formula>
C14H8NO3Cl

>  <Monoisotopic Mass>
273.019271

>  <Druglikeness>
-0.28712

$$$$
Compound 442
Actelion Java MolfileCreator 1.0

 30 33  0  0  0  0  0  0  0  0999 V2000
    0.0000   -0.0000   -0.0000 O   0  0  0  0  0  0  0  0  0  0  0  0
   -1.0686   -0.6003   -0.0000 C   0  0  0  0  0  0  0  0  0  0  0  0
   -1.0806   -2.1132   -0.0000 N   0  0  0  0  0  0  0  0  0  0  0  0
   -2.4013    0.1681   -0.0000 C   0  0  0  0  0  0  0  0  0  0  0  0
    0.2281   -2.8576   -0.0000 C   0  0  0  0  0  0  0  0  0  0  0  0
   -2.4133    1.7049   -0.0000 C   0  0  0  0  0  0  0  0  0  0  0  0
   -3.7341   -0.5883   -0.0000 C   0  0  0  0  0  0  0  0  0  0  0  0
    0.2161   -4.3704   -0.0000 C   0  0  0  0  0  0  0  0  0  0  0  0
   -3.7461    2.4734   -0.0000 C   0  0  0  0  0  0  0  0  0  0  0  0
   -5.0668    0.1801   -0.0000 C   0  0  0  0  0  0  0  0  0  0  0  0
    1.5248   -5.1148   -0.0000 C   0  0  0  0  0  0  0  0  0  0  0  0
   -1.1166   -5.1148   -0.0000 C   0  0  0  0  0  0  0  0  0  0  0  0
   -5.0788    1.7170   -0.0000 N   0  0  0  0  0  0  0  0  0  0  0  0
    1.5128   -6.6277   -0.0000 C   0  0  0  0  0  0  0  0  0  0  0  0
   -1.1286   -6.6277   -0.0000 C   0  0  0  0  0  0  0  0  0  0  0  0
   -6.4116    2.4854   -0.0000 C   0  0  0  0  0  0  0  0  0  0  0  0
    2.8216   -7.3841   -0.0000 O   0  0  0  0  0  0  0  0  0  0  0  0
    0.1801   -7.3721   -0.0000 C   0  0  0  0  0  0  0  0  0  0  0  0
   -6.4236    4.0222   -0.0000 C   0  0  0  0  0  0  0  0  0  0  0  0
   -7.4802    1.8850   -0.0000 C   0  0  0  0  0  0  0  0  0  0  0  0
    2.8096   -8.5968   -0.0000 C   0  0  0  0  0  0  0  0  0  0  0  0
   -7.7563    4.7907   -0.0000 C   0  0  0  0  0  0  0  0  0  0  0  0
   -5.1148    4.7907   -0.0000 C   0  0  0  0  0  0  0  0  0  0  0  0
   -7.7683    6.3275   -0.0000 C   0  0  0  0  0  0  0  0  0  0  0  0
   -9.0890    4.0462   -0.0000 C   0  0  0  0  0  0  0  0  0  0  0  0
   -5.1268    6.3275   -0.0000 C   0  0  0  0  0  0  0  0  0  0  0  0
   -6.4596    7.0959   -0.0000 C   0  0  0  0  0  0  0  0  0  0  0  0
   -9.1011    7.0959   -0.0000 C   0  0  0  0  0  0  0  0  0  0  0  0
  -10.4338    4.8147   -0.0000 C   0  0  0  0  0  0  0  0  0  0  0  0
  -10.4458    6.3515   -0.0000 C   0  0  0  0  0  0  0  0  0  0  0  0
  1  2  2  0  0  0  0
  2  3  1  0  0  0  0
  2  4  1  0  0  0  0
  3  5  1  0  0  0  0
  4  6  1  0  0  0  0
  4  7  1  0  0  0  0
  5  8  1  0  0  0  0
  6  9  1  0  0  0  0
  7 10  1  0  0  0  0
  8 11  2  0  0  0  0
  8 12  1  0  0  0  0
  9 13  1  0  0  0  0
 11 14  1  0  0  0  0
 12 15  2  0  0  0  0
 16 13  1  1  0  0  0
 14 17  1  0  0  0  0
 14 18  2  0  0  0  0
 16 19  1  0  0  0  0
 16 20  1  0  0  0  0
 17 21  1  0  0  0  0
 19 22  1  0  0  0  0
 19 23  2  0  0  0  0
 22 24  1  0  0  0  0
 22 25  2  0  0  0  0
 23 26  1  0  0  0  0
 24 27  1  0  0  0  0
 24 28  2  0  0  0  0
 25 29  1  0  0  0  0
 28 30  1  0  0  0  0
 10 13  1  0  0  0  0
 15 18  1  0  0  0  0
 26 27  2  0  0  0  0
 29 30  2  0  0  0  0
M  END
>  <MolRegNo>
650342

>  <m>
=

>  <Value>
9700

>  <Unit>
nM

>  <Type>
EC50

>  <Ligand Efficiency>


>  <Binding Efficiency>


>  <Surface Efficiency>


>  <Assay Index>
486973

>  <Assay Category>


>  <Assay Organism>
SARS coronavirus

>  <Target ID>
100499

>  <Target Name>
SARS coronavirus

>  <Target Organism>
SARS coronavirus

>  <Target Description>
Target is a complete organism

>  <Sequence Accession>


>  <Reference>
J. Med. Chem. 53 (13), 4968-4979 (2010)

>  <Pubmed ID>
20527968

>  <DOI>
10.1021/jm1004489

>  <InChI-Key>
QKYBTDRNPVPOGN-IBGZPJMESA-N

>  <Molecular Formula>
C26H30N2O2

>  <Monoisotopic Mass>
402.230728

>  <Druglikeness>
6.7431

$$$$
Compound 443
Actelion Java MolfileCreator 1.0

 28 31  0  0  0  0  0  0  0  0999 V2000
    0.0000   -0.0000   -0.0000 I   0  0  0  0  0  0  0  0  0  0  0  0
    1.2941   -0.7361   -0.0000 C   0  0  0  0  0  0  0  0  0  0  0  0
    2.5883    0.0475   -0.0000 C   0  0  0  0  0  0  0  0  0  0  0  0
    1.2823   -2.2321   -0.0000 C   0  0  0  0  0  0  0  0  0  0  0  0
    3.8824   -0.6886   -0.0000 C   0  0  0  0  0  0  0  0  0  0  0  0
    2.5764   -2.9682   -0.0000 C   0  0  0  0  0  0  0  0  0  0  0  0
    5.3072   -0.2137   -0.0000 C   0  0  0  0  0  0  0  0  0  0  0  0
    3.8706   -2.1846   -0.0000 C   0  0  0  0  0  0  0  0  0  0  0  0
    5.7584    1.2348   -0.0000 O   0  0  0  0  0  0  0  0  0  0  0  0
    6.1858   -1.4247   -0.0000 C   0  0  0  0  0  0  0  0  0  0  0  0
    5.2953   -2.6477   -0.0000 N   0  0  0  0  0  0  0  0  0  0  0  0
    7.6818   -1.4129   -0.0000 O   0  0  0  0  0  0  0  0  0  0  0  0
    5.7465   -4.0724   -0.0000 C   0  0  0  0  0  0  0  0  0  0  0  0
    7.2069   -4.3692   -0.0000 C   0  0  0  0  0  0  0  0  0  0  0  0
    8.2992   -3.3482   -0.0000 S   0  0  0  0  0  0  0  0  0  0  0  0
    7.8005   -5.7227   -0.0000 C   0  0  0  0  0  0  0  0  0  0  0  0
    9.6052   -4.0962   -0.0000 C   0  0  0  0  0  0  0  0  0  0  0  0
    9.2965   -5.5565   -0.0000 C   0  0  0  0  0  0  0  0  0  0  0  0
   10.9706   -3.4669   -0.0000 C   0  0  0  0  0  0  0  0  0  0  0  0
   11.1130   -1.9472   -0.0000 O   0  0  0  0  0  0  0  0  0  0  0  0
   12.1697   -4.3336   -0.0000 N   0  0  0  0  0  0  0  0  0  0  0  0
   13.5470   -3.7162   -0.0000 C   0  0  0  0  0  0  0  0  0  0  0  0
   13.6776   -2.2084   -0.0000 C   0  0  0  0  0  0  0  0  0  0  0  0
   14.7461   -4.5948   -0.0000 C   0  0  0  0  0  0  0  0  0  0  0  0
   15.0311   -1.5791   -0.0000 C   0  0  0  0  0  0  0  0  0  0  0  0
   16.1115   -3.9655   -0.0000 C   0  0  0  0  0  0  0  0  0  0  0  0
   16.2540   -2.4458   -0.0000 C   0  0  0  0  0  0  0  0  0  0  0  0
   17.6075   -1.8166   -0.0000 Cl  0  0  0  0  0  0  0  0  0  0  0  0
  1  2  1  0  0  0  0
  2  3  2  0  0  0  0
  2  4  1  0  0  0  0
  3  5  1  0  0  0  0
  4  6  2  0  0  0  0
  5  7  1  0  0  0  0
  5  8  2  0  0  0  0
  7  9  2  0  0  0  0
  7 10  1  0  0  0  0
  8 11  1  0  0  0  0
 10 12  2  0  0  0  0
 11 13  1  0  0  0  0
 13 14  1  0  0  0  0
 14 15  1  0  0  0  0
 14 16  2  0  0  0  0
 15 17  1  0  0  0  0
 16 18  1  0  0  0  0
 17 19  1  0  0  0  0
 19 20  2  0  0  0  0
 19 21  1  0  0  0  0
 21 22  1  0  0  0  0
 22 23  2  0  0  0  0
 22 24  1  0  0  0  0
 23 25  1  0  0  0  0
 24 26  2  0  0  0  0
 25 27  2  0  0  0  0
 27 28  1  0  0  0  0
  6  8  1  0  0  0  0
 10 11  1  0  0  0  0
 17 18  2  0  0  0  0
 26 27  1  0  0  0  0
M  END
>  <MolRegNo>
317527

>  <m>
=

>  <Value>
12570

>  <Unit>
nM

>  <Type>
IC50

>  <Ligand Efficiency>
0.24

>  <Binding Efficiency>
9.37

>  <Surface Efficiency>
7.37

>  <Assay Index>
238671

>  <Assay Category>


>  <Assay Organism>
SARS coronavirus

>  <Target ID>
20012

>  <Target Name>
SARS coronavirus 3C-like proteinase

>  <Target Organism>
SARS coronavirus

>  <Target Description>
Target is a single protein chain

>  <Sequence Accession>
P0C6U8

>  <Reference>
Bioorg. Med. Chem. Lett. 15 (12), 3058-3062 (2005)

>  <Pubmed ID>
15896959

>  <DOI>
10.1016/j.bmcl.2005.04.027

>  <InChI-Key>
QLHBUHQTCJSYDO-UHFFFAOYSA-N

>  <Molecular Formula>
C20H12N2O3ClIS

>  <Monoisotopic Mass>
521.930188

>  <Druglikeness>
2.3984

$$$$
Compound 444
Actelion Java MolfileCreator 1.0

 28 30  0  0  0  0  0  0  0  0999 V2000
    0.0000   -0.0000   -0.0000 Cl  0  0  0  0  0  0  0  0  0  0  0  0
   -1.2978   -0.7433   -0.0000 C   0  0  0  0  0  0  0  0  0  0  0  0
   -1.2978   -2.2298   -0.0000 C   0  0  0  0  0  0  0  0  0  0  0  0
   -2.6074    0.0118   -0.0000 C   0  0  0  0  0  0  0  0  0  0  0  0
   -2.6074   -2.9731   -0.0000 N   0  0  0  0  0  0  0  0  0  0  0  0
   -3.8698   -0.7315   -0.0000 C   0  0  0  0  0  0  0  0  0  0  0  0
   -3.9524   -2.2180   -0.0000 C   0  0  0  0  0  0  0  0  0  0  0  0
   -5.2147    0.0236   -0.0000 O   0  0  0  0  0  0  0  0  0  0  0  0
   -6.5125   -0.7197   -0.0000 C   0  0  0  0  0  0  0  0  0  0  0  0
   -6.5243   -2.2062   -0.0000 O   0  0  0  0  0  0  0  0  0  0  0  0
   -7.8339    0.0354   -0.0000 C   0  0  0  0  0  0  0  0  0  0  0  0
   -9.2025   -0.5663   -0.0000 N   0  0  0  0  0  0  0  0  0  0  0  0
   -7.9991    1.5337   -0.0000 C   0  0  0  0  0  0  0  0  0  0  0  0
  -10.3115   -1.5573   -0.0000 C   0  0  0  0  0  0  0  0  0  0  0  0
  -10.2171    0.5427   -0.0000 C   0  0  0  0  0  0  0  0  0  0  0  0
   -9.4739    1.8523   -0.0000 S   0  0  0  0  0  0  0  0  0  0  0  0
   -7.8575    3.0439   -0.0000 C   0  0  0  0  0  0  0  0  0  0  0  0
   -6.5125    1.5455   -0.0000 C   0  0  0  0  0  0  0  0  0  0  0  0
  -10.3823   -3.0439   -0.0000 O   0  0  0  0  0  0  0  0  0  0  0  0
  -11.3262   -0.4483   -0.0000 C   0  0  0  0  0  0  0  0  0  0  0  0
  -12.8363   -0.3775   -0.0000 N   0  0  0  0  0  0  0  0  0  0  0  0
  -13.6504   -1.6281   -0.0000 C   0  0  0  0  0  0  0  0  0  0  0  0
  -12.9779   -2.9495   -0.0000 O   0  0  0  0  0  0  0  0  0  0  0  0
  -15.1605   -1.5455   -0.0000 O   0  0  0  0  0  0  0  0  0  0  0  0
  -15.9746   -2.7961   -0.0000 C   0  0  0  0  0  0  0  0  0  0  0  0
  -16.8005   -4.0349   -0.0000 C   0  0  0  0  0  0  0  0  0  0  0  0
  -14.7358   -3.5866   -0.0000 C   0  0  0  0  0  0  0  0  0  0  0  0
  -17.2488   -1.9703   -0.0000 C   0  0  0  0  0  0  0  0  0  0  0  0
  1  2  1  0  0  0  0
  2  3  2  0  0  0  0
  2  4  1  0  0  0  0
  3  5  1  0  0  0  0
  4  6  2  0  0  0  0
  5  7  2  0  0  0  0
  6  8  1  0  0  0  0
  8  9  1  0  0  0  0
  9 10  2  0  0  0  0
 11  9  1  1  0  0  0
 11 12  1  0  0  0  0
 11 13  1  0  0  0  0
 12 14  1  0  0  0  0
 12 15  1  0  0  0  0
 13 16  1  0  0  0  0
 13 17  1  0  0  0  0
 13 18  1  0  0  0  0
 14 19  2  0  0  0  0
 14 20  1  0  0  0  0
 20 21  1  6  0  0  0
 21 22  1  0  0  0  0
 22 23  2  0  0  0  0
 22 24  1  0  0  0  0
 24 25  1  0  0  0  0
 25 26  1  0  0  0  0
 25 27  1  0  0  0  0
 25 28  1  0  0  0  0
  6  7  1  0  0  0  0
 15 16  1  6  0  0  0
 15 20  1  0  0  0  0
M  END
>  <MolRegNo>
493036

>  <m>
>

>  <Value>
1.0e5

>  <Unit>
nM

>  <Type>
IC50

>  <Ligand Efficiency>


>  <Binding Efficiency>


>  <Surface Efficiency>


>  <Assay Index>
341535

>  <Assay Category>


>  <Assay Organism>
SARS coronavirus

>  <Target ID>
100499

>  <Target Name>
SARS coronavirus

>  <Target Organism>
SARS coronavirus

>  <Target Description>
Target is a complete organism

>  <Sequence Accession>


>  <Reference>
Bioorg. Med. Chem. Lett. 18 (20), 5684-5688 (2008)

>  <Pubmed ID>
18796354

>  <DOI>
10.1016/j.bmcl.2008.08.082

>  <InChI-Key>
QMHFICDTFZLPHF-BZPMIXESSA-N

>  <Molecular Formula>
C18H22N3O5ClS

>  <Monoisotopic Mass>
427.096869

>  <Druglikeness>
-45.887

$$$$
Compound 445
Actelion Java MolfileCreator 1.0

 30 34  0  0  0  0  0  0  0  0999 V2000
    0.0000   -0.0000   -0.0000 O   0  0  0  0  0  0  0  0  0  0  0  0
   -1.1656    0.3806   -0.0000 C   0  0  0  0  0  0  0  0  0  0  0  0
   -2.4026   -0.4996   -0.0000 N   0  0  0  0  0  0  0  0  0  0  0  0
   -1.6533    1.8079   -0.0000 C   0  0  0  0  0  0  0  0  0  0  0  0
   -3.6396    0.4044   -0.0000 N   0  0  0  0  0  0  0  0  0  0  0  0
   -2.4145   -1.9982   -0.0000 C   0  0  0  0  0  0  0  0  0  0  0  0
   -3.1638    1.8317   -0.0000 C   0  0  0  0  0  0  0  0  0  0  0  0
   -0.7850    3.0449   -0.0000 C   0  0  0  0  0  0  0  0  0  0  0  0
   -1.1775   -2.8308   -0.0000 C   0  0  0  0  0  0  0  0  0  0  0  0
   -3.7942   -2.6405   -0.0000 C   0  0  0  0  0  0  0  0  0  0  0  0
   -4.0559    3.0687   -0.0000 C   0  0  0  0  0  0  0  0  0  0  0  0
    0.7018    2.9022   -0.0000 C   0  0  0  0  0  0  0  0  0  0  0  0
   -1.2965   -4.3295   -0.0000 C   0  0  0  0  0  0  0  0  0  0  0  0
   -3.9132   -4.1391   -0.0000 C   0  0  0  0  0  0  0  0  0  0  0  0
   -3.5563    4.4960   -0.0000 C   0  0  0  0  0  0  0  0  0  0  0  0
   -5.5545    2.8070   -0.0000 C   0  0  0  0  0  0  0  0  0  0  0  0
    1.7009    4.0321   -0.0000 O   0  0  0  0  0  0  0  0  0  0  0  0
    1.4511    1.6057   -0.0000 C   0  0  0  0  0  0  0  0  0  0  0  0
   -2.6643   -4.9717   -0.0000 C   0  0  0  0  0  0  0  0  0  0  0  0
   -4.5435    5.6616   -0.0000 C   0  0  0  0  0  0  0  0  0  0  0  0
   -6.5418    3.9726   -0.0000 C   0  0  0  0  0  0  0  0  0  0  0  0
    3.0449    3.4255   -0.0000 C   0  0  0  0  0  0  0  0  0  0  0  0
    2.9141    1.9387   -0.0000 C   0  0  0  0  0  0  0  0  0  0  0  0
   -6.0422    5.3999   -0.0000 C   0  0  0  0  0  0  0  0  0  0  0  0
    4.3413    4.1986   -0.0000 C   0  0  0  0  0  0  0  0  0  0  0  0
    5.6378    3.4612   -0.0000 C   0  0  0  0  0  0  0  0  0  0  0  0
    4.3295    5.7211   -0.0000 C   0  0  0  0  0  0  0  0  0  0  0  0
    6.9343    4.2224   -0.0000 C   0  0  0  0  0  0  0  0  0  0  0  0
    5.6259    6.4823   -0.0000 C   0  0  0  0  0  0  0  0  0  0  0  0
    6.9224    5.7448   -0.0000 C   0  0  0  0  0  0  0  0  0  0  0  0
  1  2  2  0  0  0  0
  2  3  1  0  0  0  0
  2  4  1  0  0  0  0
  3  5  1  0  0  0  0
  3  6  1  0  0  0  0
  4  7  1  0  0  0  0
  4  8  2  0  0  0  0
  6  9  2  0  0  0  0
  6 10  1  0  0  0  0
  7 11  1  0  0  0  0
  8 12  1  0  0  0  0
  9 13  1  0  0  0  0
 10 14  2  0  0  0  0
 11 15  2  0  0  0  0
 11 16  1  0  0  0  0
 12 17  1  0  0  0  0
 12 18  2  0  0  0  0
 13 19  2  0  0  0  0
 15 20  1  0  0  0  0
 16 21  2  0  0  0  0
 17 22  1  0  0  0  0
 18 23  1  0  0  0  0
 20 24  2  0  0  0  0
 22 25  1  0  0  0  0
 25 26  2  0  0  0  0
 25 27  1  0  0  0  0
 26 28  1  0  0  0  0
 27 29  2  0  0  0  0
 28 30  2  0  0  0  0
  5  7  2  0  0  0  0
 14 19  1  0  0  0  0
 21 24  1  0  0  0  0
 22 23  2  0  0  0  0
 29 30  1  0  0  0  0
M  END
>  <MolRegNo>
2087894

>  <m>
>

>  <Value>
50000

>  <Unit>
nM

>  <Type>
IC50

>  <Ligand Efficiency>


>  <Binding Efficiency>


>  <Surface Efficiency>


>  <Assay Index>
1017144

>  <Assay Category>


>  <Assay Organism>
SARS coronavirus

>  <Target ID>
101075

>  <Target Name>
Replicase polyprotein 1ab

>  <Target Organism>
SARS coronavirus

>  <Target Description>
Target is a single protein chain

>  <Sequence Accession>
P0C6X7

>  <Reference>
Bioorg. Med. Chem. 24 (13), 3035-3042 (2016)

>  <Pubmed ID>
27240464

>  <DOI>
10.1016/j.bmc.2016.05.013

>  <InChI-Key>
QPKMQJHQRSKMGY-UHFFFAOYSA-N

>  <Molecular Formula>
C26H18N2O2

>  <Monoisotopic Mass>
390.136828

>  <Druglikeness>
5.0711

$$$$
Compound 446
Actelion Java MolfileCreator 1.0

 23 26  0  0  0  0  0  0  0  0999 V2000
    0.0000   -0.0000   -0.0000 O   0  0  0  0  0  0  0  0  0  0  0  0
   -1.5084    0.0118   -0.0000 C   0  0  0  0  0  0  0  0  0  0  0  0
   -2.4040   -1.1902   -0.0000 N   0  0  0  0  0  0  0  0  0  0  0  0
   -2.4040    1.2373   -0.0000 C   0  0  0  0  0  0  0  0  0  0  0  0
   -3.8299   -0.7188   -0.0000 C   0  0  0  0  0  0  0  0  0  0  0  0
   -1.9444   -2.6043   -0.0000 C   0  0  0  0  0  0  0  0  0  0  0  0
   -1.9444    2.6750   -0.0000 O   0  0  0  0  0  0  0  0  0  0  0  0
   -3.8299    0.7778   -0.0000 C   0  0  0  0  0  0  0  0  0  0  0  0
   -5.1497   -1.4612   -0.0000 C   0  0  0  0  0  0  0  0  0  0  0  0
   -2.9579   -3.7003   -0.0000 C   0  0  0  0  0  0  0  0  0  0  0  0
   -5.1497    1.5320   -0.0000 C   0  0  0  0  0  0  0  0  0  0  0  0
   -6.4578   -0.7071   -0.0000 C   0  0  0  0  0  0  0  0  0  0  0  0
   -2.6515   -5.1379   -0.0000 O   0  0  0  0  0  0  0  0  0  0  0  0
   -4.4545   -3.5235   -0.0000 C   0  0  0  0  0  0  0  0  0  0  0  0
   -6.4578    0.8013   -0.0000 C   0  0  0  0  0  0  0  0  0  0  0  0
   -3.9595   -5.8803   -0.0000 C   0  0  0  0  0  0  0  0  0  0  0  0
   -5.0672   -4.8787   -0.0000 C   0  0  0  0  0  0  0  0  0  0  0  0
   -7.7658    1.5555   -0.0000 O   0  0  0  0  0  0  0  0  0  0  0  0
   -4.2777   -7.3180   -0.0000 C   0  0  0  0  0  0  0  0  0  0  0  0
   -6.5049   -5.3147   -0.0000 C   0  0  0  0  0  0  0  0  0  0  0  0
   -7.7776    3.0639   -0.0000 C   0  0  0  0  0  0  0  0  0  0  0  0
   -5.7154   -7.7540   -0.0000 C   0  0  0  0  0  0  0  0  0  0  0  0
   -6.8349   -6.7642   -0.0000 C   0  0  0  0  0  0  0  0  0  0  0  0
  1  2  2  0  0  0  0
  2  3  1  0  0  0  0
  2  4  1  0  0  0  0
  3  5  1  0  0  0  0
  3  6  1  0  0  0  0
  4  7  2  0  0  0  0
  4  8  1  0  0  0  0
  5  9  1  0  0  0  0
  6 10  1  0  0  0  0
  8 11  1  0  0  0  0
  9 12  2  0  0  0  0
 10 13  1  0  0  0  0
 10 14  2  0  0  0  0
 11 15  2  0  0  0  0
 13 16  1  0  0  0  0
 14 17  1  0  0  0  0
 15 18  1  0  0  0  0
 16 19  1  0  0  0  0
 17 20  1  0  0  0  0
 18 21  1  0  0  0  0
 19 22  2  0  0  0  0
 20 23  2  0  0  0  0
  5  8  2  0  0  0  0
 12 15  1  0  0  0  0
 16 17  2  0  0  0  0
 22 23  1  0  0  0  0
M  END
>  <MolRegNo>
316224

>  <m>
=

>  <Value>
13

>  <Unit>
%

>  <Type>
Inhibition

>  <Ligand Efficiency>


>  <Binding Efficiency>


>  <Surface Efficiency>


>  <Assay Index>
240686

>  <Assay Category>


>  <Assay Organism>
SARS coronavirus

>  <Target ID>
20012

>  <Target Name>
SARS coronavirus 3C-like proteinase

>  <Target Organism>
SARS coronavirus

>  <Target Description>
Target is a single protein chain

>  <Sequence Accession>
P0C6U8

>  <Reference>
Bioorg. Med. Chem. Lett. 15 (12), 3058-3062 (2005)

>  <Pubmed ID>
15896959

>  <DOI>
10.1016/j.bmcl.2005.04.027

>  <InChI-Key>
QPSKOEFUKMVQMR-UHFFFAOYSA-N

>  <Molecular Formula>
C18H13NO4

>  <Monoisotopic Mass>
307.084459

>  <Druglikeness>
0.28782

$$$$
Compound 447
Actelion Java MolfileCreator 1.0

 15 16  0  0  0  0  0  0  0  0999 V2000
    0.0000   -0.0000   -0.0000 Cl  0  0  0  0  0  0  0  0  0  0  0  0
   -1.3006    0.7567   -0.0000 C   0  0  0  0  0  0  0  0  0  0  0  0
   -2.6130    0.0236   -0.0000 C   0  0  0  0  0  0  0  0  0  0  0  0
   -1.3124    2.2701   -0.0000 C   0  0  0  0  0  0  0  0  0  0  0  0
   -3.9135    0.7803   -0.0000 N   0  0  0  0  0  0  0  0  0  0  0  0
   -2.6130    3.0268   -0.0000 C   0  0  0  0  0  0  0  0  0  0  0  0
   -3.9254    2.2819   -0.0000 C   0  0  0  0  0  0  0  0  0  0  0  0
   -5.2259    3.0386   -0.0000 N   0  0  0  0  0  0  0  0  0  0  0  0
   -6.5265    2.3056   -0.0000 C   0  0  0  0  0  0  0  0  0  0  0  0
   -6.5383    0.8276   -0.0000 O   0  0  0  0  0  0  0  0  0  0  0  0
   -7.8271    3.0623   -0.0000 C   0  0  0  0  0  0  0  0  0  0  0  0
   -9.1986    2.4711   -0.0000 S   0  0  0  0  0  0  0  0  0  0  0  0
   -7.9926    4.5520   -0.0000 C   0  0  0  0  0  0  0  0  0  0  0  0
  -10.2036    3.5943   -0.0000 C   0  0  0  0  0  0  0  0  0  0  0  0
   -9.4587    4.8712   -0.0000 C   0  0  0  0  0  0  0  0  0  0  0  0
  1  2  1  0  0  0  0
  2  3  2  0  0  0  0
  2  4  1  0  0  0  0
  3  5  1  0  0  0  0
  4  6  2  0  0  0  0
  5  7  2  0  0  0  0
  7  8  1  0  0  0  0
  8  9  1  0  0  0  0
  9 10  2  0  0  0  0
  9 11  1  0  0  0  0
 11 12  1  0  0  0  0
 11 13  2  0  0  0  0
 12 14  1  0  0  0  0
 13 15  1  0  0  0  0
  6  7  1  0  0  0  0
 14 15  2  0  0  0  0
M  END
>  <MolRegNo>
371814

>  <m>
<

>  <Value>
10

>  <Unit>
%

>  <Type>
Inhibition

>  <Ligand Efficiency>


>  <Binding Efficiency>


>  <Surface Efficiency>


>  <Assay Index>
278390

>  <Assay Category>


>  <Assay Organism>
SARS coronavirus

>  <Target ID>
20012

>  <Target Name>
SARS coronavirus 3C-like proteinase

>  <Target Organism>
SARS coronavirus

>  <Target Description>
Target is a single protein chain

>  <Sequence Accession>
P0C6U8

>  <Reference>
J. Med. Chem. 50 (8), 1850-1864 (2007)

>  <Pubmed ID>
17381079

>  <DOI>
10.1021/jm061425k

>  <InChI-Key>
QQYQSNYBWJLLOW-UHFFFAOYSA-N

>  <Molecular Formula>
C10H7N2OClS

>  <Monoisotopic Mass>
237.996760

>  <Druglikeness>
3.3339

$$$$
Compound 448
Actelion Java MolfileCreator 1.0

 29 32  0  0  0  0  0  0  0  0999 V2000
    0.0000   -0.0000   -0.0000 F   0  0  0  0  0  0  0  0  0  0  0  0
   -1.3039   -0.7468   -0.0000 C   0  0  0  0  0  0  0  0  0  0  0  0
   -2.6077   -0.0000   -0.0000 C   0  0  0  0  0  0  0  0  0  0  0  0
   -1.3157   -2.2284   -0.0000 C   0  0  0  0  0  0  0  0  0  0  0  0
   -3.9116   -0.7349   -0.0000 C   0  0  0  0  0  0  0  0  0  0  0  0
   -2.6196   -2.9752   -0.0000 C   0  0  0  0  0  0  0  0  0  0  0  0
   -3.9235   -2.2166   -0.0000 C   0  0  0  0  0  0  0  0  0  0  0  0
   -5.2155    0.0237   -0.0000 C   0  0  0  0  0  0  0  0  0  0  0  0
   -6.5193   -0.7112   -0.0000 N   0  0  0  0  0  0  0  0  0  0  0  0
   -7.8232    0.0474   -0.0000 C   0  0  0  0  0  0  0  0  0  0  0  0
   -7.8351    1.5528   -0.0000 O   0  0  0  0  0  0  0  0  0  0  0  0
   -9.1271   -0.6875   -0.0000 C   0  0  0  0  0  0  0  0  0  0  0  0
   -9.1389   -2.1692   -0.0000 C   0  0  0  0  0  0  0  0  0  0  0  0
  -10.4428    0.0711   -0.0000 C   0  0  0  0  0  0  0  0  0  0  0  0
  -10.4428   -2.9041   -0.0000 C   0  0  0  0  0  0  0  0  0  0  0  0
  -11.7585   -0.6638   -0.0000 C   0  0  0  0  0  0  0  0  0  0  0  0
  -11.7585   -2.1455   -0.0000 N   0  0  0  0  0  0  0  0  0  0  0  0
  -13.0624   -2.8922   -0.0000 C   0  0  0  0  0  0  0  0  0  0  0  0
  -13.0624   -4.3739   -0.0000 C   0  0  0  0  0  0  0  0  0  0  0  0
  -14.3781   -2.1336   -0.0000 C   0  0  0  0  0  0  0  0  0  0  0  0
  -14.3663   -5.1088   -0.0000 C   0  0  0  0  0  0  0  0  0  0  0  0
  -11.7704   -5.0969   -0.0000 C   0  0  0  0  0  0  0  0  0  0  0  0
  -15.6701   -4.3502   -0.0000 N   0  0  0  0  0  0  0  0  0  0  0  0
  -14.3781   -6.6023   -0.0000 C   0  0  0  0  0  0  0  0  0  0  0  0
  -11.7704   -6.5905   -0.0000 C   0  0  0  0  0  0  0  0  0  0  0  0
  -16.9859   -5.0851   -0.0000 C   0  0  0  0  0  0  0  0  0  0  0  0
  -15.6820   -7.3491   -0.0000 C   0  0  0  0  0  0  0  0  0  0  0  0
  -13.0980   -7.3372   -0.0000 C   0  0  0  0  0  0  0  0  0  0  0  0
  -16.9977   -6.5786   -0.0000 C   0  0  0  0  0  0  0  0  0  0  0  0
  1  2  1  0  0  0  0
  2  3  2  0  0  0  0
  2  4  1  0  0  0  0
  3  5  1  0  0  0  0
  4  6  2  0  0  0  0
  5  7  2  0  0  0  0
  5  8  1  0  0  0  0
  8  9  1  0  0  0  0
  9 10  1  0  0  0  0
 10 11  2  0  0  0  0
 10 12  1  0  0  0  0
 12 13  1  0  0  0  0
 12 14  1  0  0  0  0
 13 15  1  0  0  0  0
 14 16  1  0  0  0  0
 15 17  1  0  0  0  0
 17 18  1  0  0  0  0
 18 19  1  0  0  0  0
 18 20  1  0  0  0  0
 19 21  1  0  0  0  0
 19 22  2  0  0  0  0
 21 23  2  0  0  0  0
 21 24  1  0  0  0  0
 22 25  1  0  0  0  0
 23 26  1  0  0  0  0
 24 27  2  0  0  0  0
 24 28  1  0  0  0  0
 26 29  2  0  0  0  0
  6  7  1  0  0  0  0
 16 17  1  0  0  0  0
 25 28  2  0  0  0  0
 27 29  1  0  0  0  0
M  END
>  <MolRegNo>
1732323

>  <m>
>

>  <Value>
50000

>  <Unit>
nM

>  <Type>
EC50

>  <Ligand Efficiency>


>  <Binding Efficiency>


>  <Surface Efficiency>


>  <Assay Index>
843084

>  <Assay Category>


>  <Assay Organism>
SARS coronavirus

>  <Target ID>
100499

>  <Target Name>
SARS coronavirus

>  <Target Organism>
SARS coronavirus

>  <Target Description>
Target is a complete organism

>  <Sequence Accession>


>  <Reference>
J. Med. Chem. 57 (6), 2393-2412 (2014)

>  <Pubmed ID>
24568342

>  <DOI>
10.1021/jm401712t

>  <InChI-Key>
QSTKNFZQDYFXGZ-UHFFFAOYSA-N

>  <Molecular Formula>
C24H26N3OF

>  <Monoisotopic Mass>
391.205990

>  <Druglikeness>
5.4254

$$$$
Compound 449
Actelion Java MolfileCreator 1.0

 19 21  0  0  0  0  0  0  0  0999 V2000
    0.0000   -0.0000   -0.0000 F   0  0  0  0  0  0  0  0  0  0  0  0
    1.0800   -0.6207   -0.0000 C   0  0  0  0  0  0  0  0  0  0  0  0
    1.0676   -2.1848   -0.0000 N   0  0  0  0  0  0  0  0  0  0  0  0
    2.4455    0.1986   -0.0000 C   0  0  0  0  0  0  0  0  0  0  0  0
    2.4330   -2.9792   -0.0000 C   0  0  0  0  0  0  0  0  0  0  0  0
    3.7985   -0.5958   -0.0000 C   0  0  0  0  0  0  0  0  0  0  0  0
    2.4206   -4.2330   -0.0000 N   0  0  0  0  0  0  0  0  0  0  0  0
    3.7861   -2.1599   -0.0000 C   0  0  0  0  0  0  0  0  0  0  0  0
    5.2882   -0.0993   -0.0000 N   0  0  0  0  0  0  0  0  0  0  0  0
    5.2757   -2.6317   -0.0000 N   0  0  0  0  0  0  0  0  0  0  0  0
    6.1943   -1.3407   -0.0000 C   0  0  0  0  0  0  0  0  0  0  0  0
    5.7599    1.4151   -0.0000 C   0  0  0  0  0  0  0  0  0  0  0  0
    4.9033    2.7434   -0.0000 C   0  0  0  0  0  0  0  0  0  0  0  0
    7.2743    1.7875   -0.0000 C   0  0  0  0  0  0  0  0  0  0  0  0
    3.6247    2.8427   -0.0000 O   0  0  0  0  0  0  0  0  0  0  0  0
    5.9088    3.9599   -0.0000 C   0  0  0  0  0  0  0  0  0  0  0  0
    7.3736    3.3765   -0.0000 C   0  0  0  0  0  0  0  0  0  0  0  0
    5.5861    5.2013   -0.0000 O   0  0  0  0  0  0  0  0  0  0  0  0
    8.4288    4.0592   -0.0000 O   0  0  0  0  0  0  0  0  0  0  0  0
  1  2  1  0  0  0  0
  2  3  2  0  0  0  0
  2  4  1  0  0  0  0
  3  5  1  0  0  0  0
  4  6  2  0  0  0  0
  5  7  1  0  0  0  0
  5  8  2  0  0  0  0
  6  9  1  0  0  0  0
  8 10  1  0  0  0  0
  9 11  1  0  0  0  0
 12  9  1  6  0  0  0
 12 13  1  0  0  0  0
 12 14  1  0  0  0  0
 13 15  1  1  0  0  0
 13 16  1  0  0  0  0
 14 17  1  0  0  0  0
 16 18  1  1  0  0  0
 17 19  1  6  0  0  0
  6  8  1  0  0  0  0
 10 11  2  0  0  0  0
 16 17  1  0  0  0  0
M  END
>  <MolRegNo>
1957405

>  <m>


>  <Value>
0

>  <Unit>


>  <Type>
Activity

>  <Ligand Efficiency>


>  <Binding Efficiency>


>  <Surface Efficiency>


>  <Assay Index>
956765

>  <Assay Category>


>  <Assay Organism>
SARS coronavirus

>  <Target ID>
100499

>  <Target Name>
SARS coronavirus

>  <Target Organism>
SARS coronavirus

>  <Target Description>
Target is a complete organism

>  <Sequence Accession>


>  <Reference>
Bioorg. Med. Chem. 23 (17), 5496-5501 (2015)

>  <Pubmed ID>
26260336

>  <DOI>
10.1016/j.bmc.2015.07.039

>  <InChI-Key>
QTHFZXQQQMFMRD-DWAQLAQLSA-N

>  <Molecular Formula>
C11H13N4O3F

>  <Monoisotopic Mass>
268.097169

>  <Druglikeness>
0.82292

$$$$
Compound 450
Actelion Java MolfileCreator 1.0

 16 17  0  0  0  0  0  0  0  0999 V2000
    0.0000   -0.0000   -0.0000 O   0  0  0  0  0  0  0  0  0  0  0  0
   -0.0118    1.5117   -0.0000 C   0  0  0  0  0  0  0  0  0  0  0  0
    1.2637    2.2794   -0.0000 O   0  0  0  0  0  0  0  0  0  0  0  0
   -1.3228    2.2676   -0.0000 C   0  0  0  0  0  0  0  0  0  0  0  0
    2.5511    1.5472   -0.0000 C   0  0  0  0  0  0  0  0  0  0  0  0
   -2.0904    3.5786   -0.0000 N   0  0  0  0  0  0  0  0  0  0  0  0
   -2.8345    2.2794   -0.0000 C   0  0  0  0  0  0  0  0  0  0  0  0
    3.8266    2.3148   -0.0000 C   0  0  0  0  0  0  0  0  0  0  0  0
   -2.1023    5.0903   -0.0000 C   0  0  0  0  0  0  0  0  0  0  0  0
   -4.1455    1.5472   -0.0000 C   0  0  0  0  0  0  0  0  0  0  0  0
   -0.8149    5.8580   -0.0000 C   0  0  0  0  0  0  0  0  0  0  0  0
    0.4724    5.1139   -0.0000 C   0  0  0  0  0  0  0  0  0  0  0  0
   -0.8385    7.3579   -0.0000 C   0  0  0  0  0  0  0  0  0  0  0  0
    1.7598    5.8816   -0.0000 C   0  0  0  0  0  0  0  0  0  0  0  0
    0.4370    8.1138   -0.0000 C   0  0  0  0  0  0  0  0  0  0  0  0
    1.7479    7.3933   -0.0000 C   0  0  0  0  0  0  0  0  0  0  0  0
  1  2  2  0  0  0  0
  2  3  1  0  0  0  0
  2  4  1  0  0  0  0
  3  5  1  0  0  0  0
  4  6  1  0  0  0  0
  4  7  1  0  0  0  0
  5  8  1  0  0  0  0
  6  9  1  0  0  0  0
  7 10  1  0  0  0  0
  9 11  1  0  0  0  0
 11 12  2  0  0  0  0
 11 13  1  0  0  0  0
 12 14  1  0  0  0  0
 13 15  2  0  0  0  0
 14 16  2  0  0  0  0
  6  7  1  0  0  0  0
 15 16  1  0  0  0  0
M  END
>  <MolRegNo>
333692

>  <m>
<

>  <Value>
10

>  <Unit>
%

>  <Type>
Inhibition

>  <Ligand Efficiency>


>  <Binding Efficiency>


>  <Surface Efficiency>


>  <Assay Index>
254534

>  <Assay Category>


>  <Assay Organism>
SARS coronavirus

>  <Target ID>
20012

>  <Target Name>
SARS coronavirus 3C-like proteinase

>  <Target Organism>
SARS coronavirus

>  <Target Description>
Target is a single protein chain

>  <Sequence Accession>
P0C6U8

>  <Reference>
Bioorg. Med. Chem. Lett. 15 (24), 5365-5369 (2005)

>  <Pubmed ID>
16216498

>  <DOI>
10.1016/j.bmcl.2005.09.012

>  <InChI-Key>
QTTGHNQPTOLCIM-UHFFFAOYSA-N

>  <Molecular Formula>
C13H17NO2

>  <Monoisotopic Mass>
219.125929

>  <Druglikeness>
0.12203

$$$$
Compound 451
Actelion Java MolfileCreator 1.0

 15 16  0  0  0  0  0  0  0  0999 V2000
    0.0000   -0.0000   -0.0000 O   0  0  0  0  0  0  0  0  0  0  0  0
    1.4908    0.0592   -0.0000 C   0  0  0  0  0  0  0  0  0  0  0  0
    2.3901   -1.1122   -0.0000 N   0  0  0  0  0  0  0  0  0  0  0  0
    2.3191    1.3133   -0.0000 C   0  0  0  0  0  0  0  0  0  0  0  0
    3.7862   -0.5916   -0.0000 C   0  0  0  0  0  0  0  0  0  0  0  0
    1.9641   -2.5557   -0.0000 C   0  0  0  0  0  0  0  0  0  0  0  0
    1.7866    2.7332   -0.0000 O   0  0  0  0  0  0  0  0  0  0  0  0
    3.7389    0.9347   -0.0000 C   0  0  0  0  0  0  0  0  0  0  0  0
    5.0996   -1.2897   -0.0000 C   0  0  0  0  0  0  0  0  0  0  0  0
    5.0049    1.7393   -0.0000 C   0  0  0  0  0  0  0  0  0  0  0  0
    6.3893   -0.4851   -0.0000 C   0  0  0  0  0  0  0  0  0  0  0  0
    6.3183    1.0412   -0.0000 C   0  0  0  0  0  0  0  0  0  0  0  0
    7.5843    1.8458   -0.0000 C   0  0  0  0  0  0  0  0  0  0  0  0
    7.5251    3.3603   -0.0000 O   0  0  0  0  0  0  0  0  0  0  0  0
    8.8976    1.1595   -0.0000 N   0  0  0  0  0  0  0  0  0  0  0  0
  1  2  2  0  0  0  0
  2  3  1  0  0  0  0
  2  4  1  0  0  0  0
  3  5  1  0  0  0  0
  3  6  1  0  0  0  0
  4  7  2  0  0  0  0
  4  8  1  0  0  0  0
  5  9  1  0  0  0  0
  8 10  1  0  0  0  0
  9 11  2  0  0  0  0
 10 12  2  0  0  0  0
 12 13  1  0  0  0  0
 13 14  2  0  0  0  0
 13 15  1  0  0  0  0
  5  8  2  0  0  0  0
 11 12  1  0  0  0  0
M  END
>  <MolRegNo>
246483

>  <m>
=

>  <Value>
71000

>  <Unit>
nM

>  <Type>
IC50

>  <Ligand Efficiency>
0.38

>  <Binding Efficiency>
20.32

>  <Surface Efficiency>
5.16

>  <Assay Index>
262886

>  <Assay Category>


>  <Assay Organism>
SARS coronavirus

>  <Target ID>
20012

>  <Target Name>
SARS coronavirus 3C-like proteinase

>  <Target Organism>
SARS coronavirus

>  <Target Description>
Target is a single protein chain

>  <Sequence Accession>
P0C6U8

>  <Reference>
J. Med. Chem. 49 (12), 3440-3443 (2006)

>  <Pubmed ID>
16759084

>  <DOI>
10.1021/jm0602357

>  <InChI-Key>
QUFAZQGZSQBRME-UHFFFAOYSA-N

>  <Molecular Formula>
C10H8N2O3

>  <Monoisotopic Mass>
204.053493

>  <Druglikeness>
-0.044552

$$$$
Compound 452
Actelion Java MolfileCreator 1.0

 15 16  0  0  0  0  0  0  0  0999 V2000
    0.0000   -0.0000   -0.0000 O   0  0  0  0  0  0  0  0  0  0  0  0
    1.4908    0.0592   -0.0000 C   0  0  0  0  0  0  0  0  0  0  0  0
    2.3901   -1.1122   -0.0000 N   0  0  0  0  0  0  0  0  0  0  0  0
    2.3191    1.3133   -0.0000 C   0  0  0  0  0  0  0  0  0  0  0  0
    3.7862   -0.5916   -0.0000 C   0  0  0  0  0  0  0  0  0  0  0  0
    1.9641   -2.5557   -0.0000 C   0  0  0  0  0  0  0  0  0  0  0  0
    1.7866    2.7332   -0.0000 O   0  0  0  0  0  0  0  0  0  0  0  0
    3.7389    0.9347   -0.0000 C   0  0  0  0  0  0  0  0  0  0  0  0
    5.0996   -1.2897   -0.0000 C   0  0  0  0  0  0  0  0  0  0  0  0
    5.0049    1.7393   -0.0000 C   0  0  0  0  0  0  0  0  0  0  0  0
    6.3893   -0.4851   -0.0000 C   0  0  0  0  0  0  0  0  0  0  0  0
    6.3183    1.0412   -0.0000 C   0  0  0  0  0  0  0  0  0  0  0  0
    7.5843    1.8458   -0.0000 C   0  0  0  0  0  0  0  0  0  0  0  0
    7.5251    3.3603   -0.0000 O   0  0  0  0  0  0  0  0  0  0  0  0
    8.8976    1.1595   -0.0000 N   0  0  0  0  0  0  0  0  0  0  0  0
  1  2  2  0  0  0  0
  2  3  1  0  0  0  0
  2  4  1  0  0  0  0
  3  5  1  0  0  0  0
  3  6  1  0  0  0  0
  4  7  2  0  0  0  0
  4  8  1  0  0  0  0
  5  9  1  0  0  0  0
  8 10  1  0  0  0  0
  9 11  2  0  0  0  0
 10 12  2  0  0  0  0
 12 13  1  0  0  0  0
 13 14  2  0  0  0  0
 13 15  1  0  0  0  0
  5  8  2  0  0  0  0
 11 12  1  0  0  0  0
M  END
>  <MolRegNo>
246483

>  <m>
=

>  <Value>
72444

>  <Unit>
nM

>  <Type>
Ki

>  <Ligand Efficiency>


>  <Binding Efficiency>


>  <Surface Efficiency>


>  <Assay Index>
262886

>  <Assay Category>


>  <Assay Organism>
SARS coronavirus

>  <Target ID>
20012

>  <Target Name>
SARS coronavirus 3C-like proteinase

>  <Target Organism>
SARS coronavirus

>  <Target Description>
Target is a single protein chain

>  <Sequence Accession>
P0C6U8

>  <Reference>
J. Med. Chem. 49 (12), 3440-3443 (2006)

>  <Pubmed ID>
16759084

>  <DOI>
10.1021/jm0602357

>  <InChI-Key>
QUFAZQGZSQBRME-UHFFFAOYSA-N

>  <Molecular Formula>
C10H8N2O3

>  <Monoisotopic Mass>
204.053493

>  <Druglikeness>
-0.044552

$$$$
Compound 453
Actelion Java MolfileCreator 1.0

 15 16  0  0  0  0  0  0  0  0999 V2000
    0.0000   -0.0000   -0.0000 O   0  0  0  0  0  0  0  0  0  0  0  0
    1.4908    0.0592   -0.0000 C   0  0  0  0  0  0  0  0  0  0  0  0
    2.3901   -1.1122   -0.0000 N   0  0  0  0  0  0  0  0  0  0  0  0
    2.3191    1.3133   -0.0000 C   0  0  0  0  0  0  0  0  0  0  0  0
    3.7862   -0.5916   -0.0000 C   0  0  0  0  0  0  0  0  0  0  0  0
    1.9641   -2.5557   -0.0000 C   0  0  0  0  0  0  0  0  0  0  0  0
    1.7866    2.7332   -0.0000 O   0  0  0  0  0  0  0  0  0  0  0  0
    3.7389    0.9347   -0.0000 C   0  0  0  0  0  0  0  0  0  0  0  0
    5.0996   -1.2897   -0.0000 C   0  0  0  0  0  0  0  0  0  0  0  0
    5.0049    1.7393   -0.0000 C   0  0  0  0  0  0  0  0  0  0  0  0
    6.3893   -0.4851   -0.0000 C   0  0  0  0  0  0  0  0  0  0  0  0
    6.3183    1.0412   -0.0000 C   0  0  0  0  0  0  0  0  0  0  0  0
    7.5843    1.8458   -0.0000 C   0  0  0  0  0  0  0  0  0  0  0  0
    7.5251    3.3603   -0.0000 O   0  0  0  0  0  0  0  0  0  0  0  0
    8.8976    1.1595   -0.0000 N   0  0  0  0  0  0  0  0  0  0  0  0
  1  2  2  0  0  0  0
  2  3  1  0  0  0  0
  2  4  1  0  0  0  0
  3  5  1  0  0  0  0
  3  6  1  0  0  0  0
  4  7  2  0  0  0  0
  4  8  1  0  0  0  0
  5  9  1  0  0  0  0
  8 10  1  0  0  0  0
  9 11  2  0  0  0  0
 10 12  2  0  0  0  0
 12 13  1  0  0  0  0
 13 14  2  0  0  0  0
 13 15  1  0  0  0  0
  5  8  2  0  0  0  0
 11 12  1  0  0  0  0
M  END
>  <MolRegNo>
246483

>  <m>
=

>  <Value>
71000

>  <Unit>
nM

>  <Type>
Ki

>  <Ligand Efficiency>
0.38

>  <Binding Efficiency>
20.32

>  <Surface Efficiency>
5.16

>  <Assay Index>
262886

>  <Assay Category>


>  <Assay Organism>
SARS coronavirus

>  <Target ID>
20012

>  <Target Name>
SARS coronavirus 3C-like proteinase

>  <Target Organism>
SARS coronavirus

>  <Target Description>
Target is a single protein chain

>  <Sequence Accession>
P0C6U8

>  <Reference>
J. Med. Chem. 49 (12), 3440-3443 (2006)

>  <Pubmed ID>
16759084

>  <DOI>
10.1021/jm0602357

>  <InChI-Key>
QUFAZQGZSQBRME-UHFFFAOYSA-N

>  <Molecular Formula>
C10H8N2O3

>  <Monoisotopic Mass>
204.053493

>  <Druglikeness>
-0.044552

$$$$
Compound 454
Actelion Java MolfileCreator 1.0

 42 44  0  0  1  0  0  0  0  0999 V2000
    0.0000   -0.0000   -0.0000 O   0  0  0  0  0  0  0  0  0  0  0  0
    1.0948    1.0124   -0.0000 C   0  0  0  0  0  0  0  0  0  0  0  0
    2.5427    0.7181   -0.0000 N   0  0  0  0  0  0  0  0  0  0  0  0
    0.9300    2.5074   -0.0000 C   0  0  0  0  0  0  0  0  0  0  0  0
    3.2843    2.0247   -0.0000 C   0  0  0  0  0  0  0  0  0  0  0  0
    2.2955    3.1313   -0.0000 C   0  0  0  0  0  0  0  0  0  0  0  0
   -0.3767    3.2608   -0.0000 C   0  0  0  0  0  0  0  0  0  0  0  0
   -0.3885    4.7676   -0.0000 C   0  0  0  0  0  0  0  0  0  0  0  0
   -1.6951    5.5209   -0.0000 N   0  0  0  0  0  0  0  0  0  0  0  0
    0.8947    5.5209   -0.0000 C   0  0  0  0  0  0  0  0  0  0  0  0
   -3.0018    4.7793   -0.0000 C   0  0  0  0  0  0  0  0  0  0  0  0
    0.8829    7.0277   -0.0000 C   0  0  0  0  0  0  0  0  0  0  0  0
   -3.0136    3.2961   -0.0000 O   0  0  0  0  0  0  0  0  0  0  0  0
   -4.3085    5.5327   -0.0000 C   0  0  0  0  0  0  0  0  0  0  0  0
    2.1660    7.7811   -0.0000 C   0  0  0  0  0  0  0  0  0  0  0  0
   -4.3202    7.0395   -0.0000 C   0  0  0  0  0  0  0  0  0  0  0  0
   -5.6269    4.7911   -0.0000 C   0  0  0  0  0  0  0  0  0  0  0  0
    2.1542    9.2879   -0.0000 O   0  0  0  0  0  0  0  0  0  0  0  0
    3.4609    7.0513   -0.0000 O   0  0  0  0  0  0  0  0  0  0  0  0
   -3.2843    8.1107   -0.0000 C   0  0  0  0  0  0  0  0  0  0  0  0
   -6.9336    5.5445   -0.0000 C   0  0  0  0  0  0  0  0  0  0  0  0
    4.7440    7.8047   -0.0000 C   0  0  0  0  0  0  0  0  0  0  0  0
   -3.7081    9.5704   -0.0000 C   0  0  0  0  0  0  0  0  0  0  0  0
   -1.8482    7.7458   -0.0000 C   0  0  0  0  0  0  0  0  0  0  0  0
   -6.9453    7.0513   -0.0000 O   0  0  0  0  0  0  0  0  0  0  0  0
   -8.2402    4.8029   -0.0000 C   0  0  0  0  0  0  0  0  0  0  0  0
    6.0271    7.0748   -0.0000 C   0  0  0  0  0  0  0  0  0  0  0  0
   -2.6722   10.6416   -0.0000 C   0  0  0  0  0  0  0  0  0  0  0  0
   -0.8005    8.8406   -0.0000 C   0  0  0  0  0  0  0  0  0  0  0  0
   -9.5469    5.5563   -0.0000 N   0  0  0  0  0  0  0  0  0  0  0  0
   -8.2520    3.3196   -0.0000 C   0  0  0  0  0  0  0  0  0  0  0  0
   -1.2125   10.2885   -0.0000 C   0  0  0  0  0  0  0  0  0  0  0  0
  -10.8535    4.8146   -0.0000 C   0  0  0  0  0  0  0  0  0  0  0  0
   -9.5586    2.5898   -0.0000 C   0  0  0  0  0  0  0  0  0  0  0  0
   -6.9689    2.5898   -0.0000 C   0  0  0  0  0  0  0  0  0  0  0  0
  -10.8653    3.3314   -0.0000 O   0  0  0  0  0  0  0  0  0  0  0  0
  -12.1602    5.5680   -0.0000 C   0  0  0  0  0  0  0  0  0  0  0  0
  -12.3250    7.0748   -0.0000 N   0  0  0  0  0  0  0  0  0  0  0  0
  -13.5493    4.9677   -0.0000 C   0  0  0  0  0  0  0  0  0  0  0  0
  -13.7965    7.4044   -0.0000 O   0  0  0  0  0  0  0  0  0  0  0  0
  -14.5616    6.0978   -0.0000 C   0  0  0  0  0  0  0  0  0  0  0  0
  -16.0684    5.9565   -0.0000 C   0  0  0  0  0  0  0  0  0  0  0  0
  1  2  2  0  0  0  0
  2  3  1  0  0  0  0
  2  4  1  0  0  0  0
  3  5  1  0  0  0  0
  4  6  1  0  0  0  0
  4  7  1  6  0  0  0
  7  8  1  0  0  0  0
  8  9  1  6  0  0  0
  8 10  1  0  0  0  0
  9 11  1  0  0  0  0
 10 12  2  0  0  0  0
 11 13  2  0  0  0  0
 11 14  1  0  0  0  0
 12 15  1  0  0  0  0
 14 16  1  1  0  0  0
 14 17  1  0  0  0  0
 15 18  2  0  0  0  0
 15 19  1  0  0  0  0
 16 20  1  0  0  0  0
 17 21  1  0  0  0  0
 19 22  1  0  0  0  0
 20 23  2  0  0  0  0
 20 24  1  0  0  0  0
 21 25  1  0  0  0  0
 21 26  1  0  0  0  0
 22 27  1  0  0  0  0
 23 28  1  0  0  0  0
 24 29  2  0  0  0  0
 26 30  1  6  0  0  0
 26 31  1  0  0  0  0
 28 32  2  0  0  0  0
 30 33  1  0  0  0  0
 31 34  1  0  0  0  0
 31 35  1  0  0  0  0
 33 36  2  0  0  0  0
 33 37  1  0  0  0  0
 37 38  2  0  0  0  0
 37 39  1  0  0  0  0
 38 40  1  0  0  0  0
 39 41  2  0  0  0  0
 41 42  1  0  0  0  0
  5  6  1  0  0  0  0
 29 32  1  0  0  0  0
 40 41  1  0  0  0  0
M  END
>  <MolRegNo>
329387

>  <m>
=

>  <Value>
4.617

>  <Unit>
hr

>  <Type>
T1/2

>  <Ligand Efficiency>


>  <Binding Efficiency>


>  <Surface Efficiency>


>  <Assay Index>
250668

>  <Assay Category>


>  <Assay Organism>
Carona virus

>  <Target ID>
20012

>  <Target Name>
SARS coronavirus 3C-like proteinase

>  <Target Organism>
SARS coronavirus

>  <Target Description>
Target is a single protein chain

>  <Sequence Accession>
P0C6U8

>  <Reference>
J. Med. Chem. 48 (22), 6767-6771 (2005)

>  <Pubmed ID>
16250632

>  <DOI>
10.1021/jm050548m

>  <InChI-Key>
QWWQDVZVNOWLHC-YVLDERKRSA-N

>  <Molecular Formula>
C31H42N4O7

>  <Monoisotopic Mass>
582.305351

>  <Druglikeness>
-3.8991

$$$$
Compound 455
Actelion Java MolfileCreator 1.0

 42 44  0  0  1  0  0  0  0  0999 V2000
    0.0000   -0.0000   -0.0000 O   0  0  0  0  0  0  0  0  0  0  0  0
    1.0948    1.0124   -0.0000 C   0  0  0  0  0  0  0  0  0  0  0  0
    2.5427    0.7181   -0.0000 N   0  0  0  0  0  0  0  0  0  0  0  0
    0.9300    2.5074   -0.0000 C   0  0  0  0  0  0  0  0  0  0  0  0
    3.2843    2.0247   -0.0000 C   0  0  0  0  0  0  0  0  0  0  0  0
    2.2955    3.1313   -0.0000 C   0  0  0  0  0  0  0  0  0  0  0  0
   -0.3767    3.2608   -0.0000 C   0  0  0  0  0  0  0  0  0  0  0  0
   -0.3885    4.7676   -0.0000 C   0  0  0  0  0  0  0  0  0  0  0  0
   -1.6951    5.5209   -0.0000 N   0  0  0  0  0  0  0  0  0  0  0  0
    0.8947    5.5209   -0.0000 C   0  0  0  0  0  0  0  0  0  0  0  0
   -3.0018    4.7793   -0.0000 C   0  0  0  0  0  0  0  0  0  0  0  0
    0.8829    7.0277   -0.0000 C   0  0  0  0  0  0  0  0  0  0  0  0
   -3.0136    3.2961   -0.0000 O   0  0  0  0  0  0  0  0  0  0  0  0
   -4.3085    5.5327   -0.0000 C   0  0  0  0  0  0  0  0  0  0  0  0
    2.1660    7.7811   -0.0000 C   0  0  0  0  0  0  0  0  0  0  0  0
   -4.3202    7.0395   -0.0000 C   0  0  0  0  0  0  0  0  0  0  0  0
   -5.6269    4.7911   -0.0000 C   0  0  0  0  0  0  0  0  0  0  0  0
    2.1542    9.2879   -0.0000 O   0  0  0  0  0  0  0  0  0  0  0  0
    3.4609    7.0513   -0.0000 O   0  0  0  0  0  0  0  0  0  0  0  0
   -3.2843    8.1107   -0.0000 C   0  0  0  0  0  0  0  0  0  0  0  0
   -6.9336    5.5445   -0.0000 C   0  0  0  0  0  0  0  0  0  0  0  0
    4.7440    7.8047   -0.0000 C   0  0  0  0  0  0  0  0  0  0  0  0
   -3.7081    9.5704   -0.0000 C   0  0  0  0  0  0  0  0  0  0  0  0
   -1.8482    7.7458   -0.0000 C   0  0  0  0  0  0  0  0  0  0  0  0
   -6.9453    7.0513   -0.0000 O   0  0  0  0  0  0  0  0  0  0  0  0
   -8.2402    4.8029   -0.0000 C   0  0  0  0  0  0  0  0  0  0  0  0
    6.0271    7.0748   -0.0000 C   0  0  0  0  0  0  0  0  0  0  0  0
   -2.6722   10.6416   -0.0000 C   0  0  0  0  0  0  0  0  0  0  0  0
   -0.8005    8.8406   -0.0000 C   0  0  0  0  0  0  0  0  0  0  0  0
   -9.5469    5.5563   -0.0000 N   0  0  0  0  0  0  0  0  0  0  0  0
   -8.2520    3.3196   -0.0000 C   0  0  0  0  0  0  0  0  0  0  0  0
   -1.2125   10.2885   -0.0000 C   0  0  0  0  0  0  0  0  0  0  0  0
  -10.8535    4.8146   -0.0000 C   0  0  0  0  0  0  0  0  0  0  0  0
   -9.5586    2.5898   -0.0000 C   0  0  0  0  0  0  0  0  0  0  0  0
   -6.9689    2.5898   -0.0000 C   0  0  0  0  0  0  0  0  0  0  0  0
  -10.8653    3.3314   -0.0000 O   0  0  0  0  0  0  0  0  0  0  0  0
  -12.1602    5.5680   -0.0000 C   0  0  0  0  0  0  0  0  0  0  0  0
  -12.3250    7.0748   -0.0000 N   0  0  0  0  0  0  0  0  0  0  0  0
  -13.5493    4.9677   -0.0000 C   0  0  0  0  0  0  0  0  0  0  0  0
  -13.7965    7.4044   -0.0000 O   0  0  0  0  0  0  0  0  0  0  0  0
  -14.5616    6.0978   -0.0000 C   0  0  0  0  0  0  0  0  0  0  0  0
  -16.0684    5.9565   -0.0000 C   0  0  0  0  0  0  0  0  0  0  0  0
  1  2  2  0  0  0  0
  2  3  1  0  0  0  0
  2  4  1  0  0  0  0
  3  5  1  0  0  0  0
  4  6  1  0  0  0  0
  4  7  1  6  0  0  0
  7  8  1  0  0  0  0
  8  9  1  6  0  0  0
  8 10  1  0  0  0  0
  9 11  1  0  0  0  0
 10 12  2  0  0  0  0
 11 13  2  0  0  0  0
 11 14  1  0  0  0  0
 12 15  1  0  0  0  0
 14 16  1  1  0  0  0
 14 17  1  0  0  0  0
 15 18  2  0  0  0  0
 15 19  1  0  0  0  0
 16 20  1  0  0  0  0
 17 21  1  0  0  0  0
 19 22  1  0  0  0  0
 20 23  2  0  0  0  0
 20 24  1  0  0  0  0
 21 25  1  0  0  0  0
 21 26  1  0  0  0  0
 22 27  1  0  0  0  0
 23 28  1  0  0  0  0
 24 29  2  0  0  0  0
 26 30  1  6  0  0  0
 26 31  1  0  0  0  0
 28 32  2  0  0  0  0
 30 33  1  0  0  0  0
 31 34  1  0  0  0  0
 31 35  1  0  0  0  0
 33 36  2  0  0  0  0
 33 37  1  0  0  0  0
 37 38  2  0  0  0  0
 37 39  1  0  0  0  0
 38 40  1  0  0  0  0
 39 41  2  0  0  0  0
 41 42  1  0  0  0  0
  5  6  1  0  0  0  0
 29 32  1  0  0  0  0
 40 41  1  0  0  0  0
M  END
>  <MolRegNo>
329387

>  <m>
=

>  <Value>
0.0025

>  <Unit>
1/min

>  <Type>
kinact

>  <Ligand Efficiency>


>  <Binding Efficiency>


>  <Surface Efficiency>


>  <Assay Index>
250772

>  <Assay Category>


>  <Assay Organism>
Carona virus

>  <Target ID>
20012

>  <Target Name>
SARS coronavirus 3C-like proteinase

>  <Target Organism>
SARS coronavirus

>  <Target Description>
Target is a single protein chain

>  <Sequence Accession>
P0C6U8

>  <Reference>
J. Med. Chem. 48 (22), 6767-6771 (2005)

>  <Pubmed ID>
16250632

>  <DOI>
10.1021/jm050548m

>  <InChI-Key>
QWWQDVZVNOWLHC-YVLDERKRSA-N

>  <Molecular Formula>
C31H42N4O7

>  <Monoisotopic Mass>
582.305351

>  <Druglikeness>
-3.8991

$$$$
Compound 456
Actelion Java MolfileCreator 1.0

 21 23  0  0  0  0  0  0  0  0999 V2000
    0.0000   -0.0000   -0.0000 O   0  0  0  0  0  0  0  0  0  0  0  0
   -0.0119   -1.4886   -0.0000 C   0  0  0  0  0  0  0  0  0  0  0  0
    1.2861   -2.2269   -0.0000 C   0  0  0  0  0  0  0  0  0  0  0  0
   -1.3219   -2.2269   -0.0000 C   0  0  0  0  0  0  0  0  0  0  0  0
    1.2742   -3.7275   -0.0000 C   0  0  0  0  0  0  0  0  0  0  0  0
    2.5723   -1.4767   -0.0000 C   0  0  0  0  0  0  0  0  0  0  0  0
   -1.3338   -3.7155   -0.0000 C   0  0  0  0  0  0  0  0  0  0  0  0
   -0.0357   -4.4658   -0.0000 C   0  0  0  0  0  0  0  0  0  0  0  0
    3.8584   -2.2150   -0.0000 C   0  0  0  0  0  0  0  0  0  0  0  0
    2.5604    0.0357   -0.0000 C   0  0  0  0  0  0  0  0  0  0  0  0
   -2.6438   -4.4539   -0.0000 C   0  0  0  0  0  0  0  0  0  0  0  0
   -0.0476   -5.9544   -0.0000 C   0  0  0  0  0  0  0  0  0  0  0  0
   -2.6557   -5.9544   -0.0000 C   0  0  0  0  0  0  0  0  0  0  0  0
   -3.9656   -3.6917   -0.0000 C   0  0  0  0  0  0  0  0  0  0  0  0
   -2.6676   -2.9415   -0.0000 C   0  0  0  0  0  0  0  0  0  0  0  0
   -1.3576   -6.6927   -0.0000 C   0  0  0  0  0  0  0  0  0  0  0  0
   -3.9775   -6.6927   -0.0000 C   0  0  0  0  0  0  0  0  0  0  0  0
   -5.2756   -4.4301   -0.0000 C   0  0  0  0  0  0  0  0  0  0  0  0
   -5.2875   -5.9306   -0.0000 C   0  0  0  0  0  0  0  0  0  0  0  0
   -5.0612   -7.7288   -0.0000 C   0  0  0  0  0  0  0  0  0  0  0  0
   -3.6084   -8.1218   -0.0000 C   0  0  0  0  0  0  0  0  0  0  0  0
  1  2  1  0  0  0  0
  2  3  2  0  0  0  0
  2  4  1  0  0  0  0
  3  5  1  0  0  0  0
  3  6  1  0  0  0  0
  4  7  2  0  0  0  0
  5  8  2  0  0  0  0
  6  9  1  0  0  0  0
  6 10  1  0  0  0  0
  7 11  1  0  0  0  0
  8 12  1  0  0  0  0
 11 13  1  0  0  0  0
 11 14  1  0  0  0  0
 11 15  1  1  0  0  0
 12 16  1  0  0  0  0
 13 17  1  0  0  0  0
 14 18  1  0  0  0  0
 17 19  1  0  0  0  0
 17 20  1  0  0  0  0
 17 21  1  0  0  0  0
  7  8  1  0  0  0  0
 13 16  1  1  0  0  0
 18 19  1  0  0  0  0
M  END
>  <MolRegNo>
325341

>  <m>


>  <Value>
0

>  <Unit>


>  <Type>
Activity

>  <Ligand Efficiency>


>  <Binding Efficiency>


>  <Surface Efficiency>


>  <Assay Index>
294025

>  <Assay Category>


>  <Assay Organism>
SARS coronavirus

>  <Target ID>
100499

>  <Target Name>
SARS coronavirus

>  <Target Organism>
SARS coronavirus

>  <Target Description>
Target is a complete organism

>  <Sequence Accession>


>  <Reference>
J. Med. Chem. 50 (17), 4087-4095 (2007)

>  <Pubmed ID>
17663539

>  <DOI>
10.1021/jm070295s

>  <InChI-Key>
QXNWVJOHUAQHLM-UYAOXDASSA-N

>  <Molecular Formula>
C20H30O

>  <Monoisotopic Mass>
286.229665

>  <Druglikeness>
-5.1626

$$$$
Compound 457
Actelion Java MolfileCreator 1.0

 21 23  0  0  0  0  0  0  0  0999 V2000
    0.0000   -0.0000   -0.0000 O   0  0  0  0  0  0  0  0  0  0  0  0
   -0.0119   -1.4886   -0.0000 C   0  0  0  0  0  0  0  0  0  0  0  0
    1.2861   -2.2269   -0.0000 C   0  0  0  0  0  0  0  0  0  0  0  0
   -1.3219   -2.2269   -0.0000 C   0  0  0  0  0  0  0  0  0  0  0  0
    1.2742   -3.7275   -0.0000 C   0  0  0  0  0  0  0  0  0  0  0  0
    2.5723   -1.4767   -0.0000 C   0  0  0  0  0  0  0  0  0  0  0  0
   -1.3338   -3.7155   -0.0000 C   0  0  0  0  0  0  0  0  0  0  0  0
   -0.0357   -4.4658   -0.0000 C   0  0  0  0  0  0  0  0  0  0  0  0
    3.8584   -2.2150   -0.0000 C   0  0  0  0  0  0  0  0  0  0  0  0
    2.5604    0.0357   -0.0000 C   0  0  0  0  0  0  0  0  0  0  0  0
   -2.6438   -4.4539   -0.0000 C   0  0  0  0  0  0  0  0  0  0  0  0
   -0.0476   -5.9544   -0.0000 C   0  0  0  0  0  0  0  0  0  0  0  0
   -2.6557   -5.9544   -0.0000 C   0  0  0  0  0  0  0  0  0  0  0  0
   -3.9656   -3.6917   -0.0000 C   0  0  0  0  0  0  0  0  0  0  0  0
   -2.6676   -2.9415   -0.0000 C   0  0  0  0  0  0  0  0  0  0  0  0
   -1.3576   -6.6927   -0.0000 C   0  0  0  0  0  0  0  0  0  0  0  0
   -3.9775   -6.6927   -0.0000 C   0  0  0  0  0  0  0  0  0  0  0  0
   -5.2756   -4.4301   -0.0000 C   0  0  0  0  0  0  0  0  0  0  0  0
   -5.2875   -5.9306   -0.0000 C   0  0  0  0  0  0  0  0  0  0  0  0
   -5.0612   -7.7288   -0.0000 C   0  0  0  0  0  0  0  0  0  0  0  0
   -3.6084   -8.1218   -0.0000 C   0  0  0  0  0  0  0  0  0  0  0  0
  1  2  1  0  0  0  0
  2  3  2  0  0  0  0
  2  4  1  0  0  0  0
  3  5  1  0  0  0  0
  3  6  1  0  0  0  0
  4  7  2  0  0  0  0
  5  8  2  0  0  0  0
  6  9  1  0  0  0  0
  6 10  1  0  0  0  0
  7 11  1  0  0  0  0
  8 12  1  0  0  0  0
 11 13  1  0  0  0  0
 11 14  1  0  0  0  0
 11 15  1  1  0  0  0
 12 16  1  0  0  0  0
 13 17  1  0  0  0  0
 14 18  1  0  0  0  0
 17 19  1  0  0  0  0
 17 20  1  0  0  0  0
 17 21  1  0  0  0  0
  7  8  1  0  0  0  0
 13 16  1  1  0  0  0
 18 19  1  0  0  0  0
M  END
>  <MolRegNo>
325341

>  <m>
=

>  <Value>
1390

>  <Unit>
nM

>  <Type>
EC50

>  <Ligand Efficiency>


>  <Binding Efficiency>


>  <Surface Efficiency>


>  <Assay Index>
294026

>  <Assay Category>


>  <Assay Organism>
SARS coronavirus

>  <Target ID>
100499

>  <Target Name>
SARS coronavirus

>  <Target Organism>
SARS coronavirus

>  <Target Description>
Target is a complete organism

>  <Sequence Accession>


>  <Reference>
J. Med. Chem. 50 (17), 4087-4095 (2007)

>  <Pubmed ID>
17663539

>  <DOI>
10.1021/jm070295s

>  <InChI-Key>
QXNWVJOHUAQHLM-UYAOXDASSA-N

>  <Molecular Formula>
C20H30O

>  <Monoisotopic Mass>
286.229665

>  <Druglikeness>
-5.1626

$$$$
Compound 458
Actelion Java MolfileCreator 1.0

 21 23  0  0  0  0  0  0  0  0999 V2000
    0.0000   -0.0000   -0.0000 O   0  0  0  0  0  0  0  0  0  0  0  0
   -0.0119   -1.4886   -0.0000 C   0  0  0  0  0  0  0  0  0  0  0  0
    1.2861   -2.2269   -0.0000 C   0  0  0  0  0  0  0  0  0  0  0  0
   -1.3219   -2.2269   -0.0000 C   0  0  0  0  0  0  0  0  0  0  0  0
    1.2742   -3.7275   -0.0000 C   0  0  0  0  0  0  0  0  0  0  0  0
    2.5723   -1.4767   -0.0000 C   0  0  0  0  0  0  0  0  0  0  0  0
   -1.3338   -3.7155   -0.0000 C   0  0  0  0  0  0  0  0  0  0  0  0
   -0.0357   -4.4658   -0.0000 C   0  0  0  0  0  0  0  0  0  0  0  0
    3.8584   -2.2150   -0.0000 C   0  0  0  0  0  0  0  0  0  0  0  0
    2.5604    0.0357   -0.0000 C   0  0  0  0  0  0  0  0  0  0  0  0
   -2.6438   -4.4539   -0.0000 C   0  0  0  0  0  0  0  0  0  0  0  0
   -0.0476   -5.9544   -0.0000 C   0  0  0  0  0  0  0  0  0  0  0  0
   -2.6557   -5.9544   -0.0000 C   0  0  0  0  0  0  0  0  0  0  0  0
   -3.9656   -3.6917   -0.0000 C   0  0  0  0  0  0  0  0  0  0  0  0
   -2.6676   -2.9415   -0.0000 C   0  0  0  0  0  0  0  0  0  0  0  0
   -1.3576   -6.6927   -0.0000 C   0  0  0  0  0  0  0  0  0  0  0  0
   -3.9775   -6.6927   -0.0000 C   0  0  0  0  0  0  0  0  0  0  0  0
   -5.2756   -4.4301   -0.0000 C   0  0  0  0  0  0  0  0  0  0  0  0
   -5.2875   -5.9306   -0.0000 C   0  0  0  0  0  0  0  0  0  0  0  0
   -5.0612   -7.7288   -0.0000 C   0  0  0  0  0  0  0  0  0  0  0  0
   -3.6084   -8.1218   -0.0000 C   0  0  0  0  0  0  0  0  0  0  0  0
  1  2  1  0  0  0  0
  2  3  2  0  0  0  0
  2  4  1  0  0  0  0
  3  5  1  0  0  0  0
  3  6  1  0  0  0  0
  4  7  2  0  0  0  0
  5  8  2  0  0  0  0
  6  9  1  0  0  0  0
  6 10  1  0  0  0  0
  7 11  1  0  0  0  0
  8 12  1  0  0  0  0
 11 13  1  0  0  0  0
 11 14  1  0  0  0  0
 11 15  1  1  0  0  0
 12 16  1  0  0  0  0
 13 17  1  0  0  0  0
 14 18  1  0  0  0  0
 17 19  1  0  0  0  0
 17 20  1  0  0  0  0
 17 21  1  0  0  0  0
  7  8  1  0  0  0  0
 13 16  1  1  0  0  0
 18 19  1  0  0  0  0
M  END
>  <MolRegNo>
325341

>  <m>
<

>  <Value>
25

>  <Unit>
%

>  <Type>
Inhibition

>  <Ligand Efficiency>


>  <Binding Efficiency>


>  <Surface Efficiency>


>  <Assay Index>
294022

>  <Assay Category>


>  <Assay Organism>
SARS coronavirus

>  <Target ID>
100499

>  <Target Name>
SARS coronavirus

>  <Target Organism>
SARS coronavirus

>  <Target Description>
Target is a complete organism

>  <Sequence Accession>


>  <Reference>
J. Med. Chem. 50 (17), 4087-4095 (2007)

>  <Pubmed ID>
17663539

>  <DOI>
10.1021/jm070295s

>  <InChI-Key>
QXNWVJOHUAQHLM-UYAOXDASSA-N

>  <Molecular Formula>
C20H30O

>  <Monoisotopic Mass>
286.229665

>  <Druglikeness>
-5.1626

$$$$
Compound 459
Actelion Java MolfileCreator 1.0

 21 23  0  0  0  0  0  0  0  0999 V2000
    0.0000   -0.0000   -0.0000 O   0  0  0  0  0  0  0  0  0  0  0  0
   -0.0119   -1.4886   -0.0000 C   0  0  0  0  0  0  0  0  0  0  0  0
    1.2861   -2.2269   -0.0000 C   0  0  0  0  0  0  0  0  0  0  0  0
   -1.3219   -2.2269   -0.0000 C   0  0  0  0  0  0  0  0  0  0  0  0
    1.2742   -3.7275   -0.0000 C   0  0  0  0  0  0  0  0  0  0  0  0
    2.5723   -1.4767   -0.0000 C   0  0  0  0  0  0  0  0  0  0  0  0
   -1.3338   -3.7155   -0.0000 C   0  0  0  0  0  0  0  0  0  0  0  0
   -0.0357   -4.4658   -0.0000 C   0  0  0  0  0  0  0  0  0  0  0  0
    3.8584   -2.2150   -0.0000 C   0  0  0  0  0  0  0  0  0  0  0  0
    2.5604    0.0357   -0.0000 C   0  0  0  0  0  0  0  0  0  0  0  0
   -2.6438   -4.4539   -0.0000 C   0  0  0  0  0  0  0  0  0  0  0  0
   -0.0476   -5.9544   -0.0000 C   0  0  0  0  0  0  0  0  0  0  0  0
   -2.6557   -5.9544   -0.0000 C   0  0  0  0  0  0  0  0  0  0  0  0
   -3.9656   -3.6917   -0.0000 C   0  0  0  0  0  0  0  0  0  0  0  0
   -2.6676   -2.9415   -0.0000 C   0  0  0  0  0  0  0  0  0  0  0  0
   -1.3576   -6.6927   -0.0000 C   0  0  0  0  0  0  0  0  0  0  0  0
   -3.9775   -6.6927   -0.0000 C   0  0  0  0  0  0  0  0  0  0  0  0
   -5.2756   -4.4301   -0.0000 C   0  0  0  0  0  0  0  0  0  0  0  0
   -5.2875   -5.9306   -0.0000 C   0  0  0  0  0  0  0  0  0  0  0  0
   -5.0612   -7.7288   -0.0000 C   0  0  0  0  0  0  0  0  0  0  0  0
   -3.6084   -8.1218   -0.0000 C   0  0  0  0  0  0  0  0  0  0  0  0
  1  2  1  0  0  0  0
  2  3  2  0  0  0  0
  2  4  1  0  0  0  0
  3  5  1  0  0  0  0
  3  6  1  0  0  0  0
  4  7  2  0  0  0  0
  5  8  2  0  0  0  0
  6  9  1  0  0  0  0
  6 10  1  0  0  0  0
  7 11  1  0  0  0  0
  8 12  1  0  0  0  0
 11 13  1  0  0  0  0
 11 14  1  0  0  0  0
 11 15  1  1  0  0  0
 12 16  1  0  0  0  0
 13 17  1  0  0  0  0
 14 18  1  0  0  0  0
 17 19  1  0  0  0  0
 17 20  1  0  0  0  0
 17 21  1  0  0  0  0
  7  8  1  0  0  0  0
 13 16  1  1  0  0  0
 18 19  1  0  0  0  0
M  END
>  <MolRegNo>
325341

>  <m>
<

>  <Value>
25

>  <Unit>
%

>  <Type>
Inhibition

>  <Ligand Efficiency>


>  <Binding Efficiency>


>  <Surface Efficiency>


>  <Assay Index>
294023

>  <Assay Category>


>  <Assay Organism>
SARS coronavirus

>  <Target ID>
100499

>  <Target Name>
SARS coronavirus

>  <Target Organism>
SARS coronavirus

>  <Target Description>
Target is a complete organism

>  <Sequence Accession>


>  <Reference>
J. Med. Chem. 50 (17), 4087-4095 (2007)

>  <Pubmed ID>
17663539

>  <DOI>
10.1021/jm070295s

>  <InChI-Key>
QXNWVJOHUAQHLM-UYAOXDASSA-N

>  <Molecular Formula>
C20H30O

>  <Monoisotopic Mass>
286.229665

>  <Druglikeness>
-5.1626

$$$$
Compound 460
Actelion Java MolfileCreator 1.0

 21 23  0  0  0  0  0  0  0  0999 V2000
    0.0000   -0.0000   -0.0000 O   0  0  0  0  0  0  0  0  0  0  0  0
   -0.0119   -1.4886   -0.0000 C   0  0  0  0  0  0  0  0  0  0  0  0
    1.2861   -2.2269   -0.0000 C   0  0  0  0  0  0  0  0  0  0  0  0
   -1.3219   -2.2269   -0.0000 C   0  0  0  0  0  0  0  0  0  0  0  0
    1.2742   -3.7275   -0.0000 C   0  0  0  0  0  0  0  0  0  0  0  0
    2.5723   -1.4767   -0.0000 C   0  0  0  0  0  0  0  0  0  0  0  0
   -1.3338   -3.7155   -0.0000 C   0  0  0  0  0  0  0  0  0  0  0  0
   -0.0357   -4.4658   -0.0000 C   0  0  0  0  0  0  0  0  0  0  0  0
    3.8584   -2.2150   -0.0000 C   0  0  0  0  0  0  0  0  0  0  0  0
    2.5604    0.0357   -0.0000 C   0  0  0  0  0  0  0  0  0  0  0  0
   -2.6438   -4.4539   -0.0000 C   0  0  0  0  0  0  0  0  0  0  0  0
   -0.0476   -5.9544   -0.0000 C   0  0  0  0  0  0  0  0  0  0  0  0
   -2.6557   -5.9544   -0.0000 C   0  0  0  0  0  0  0  0  0  0  0  0
   -3.9656   -3.6917   -0.0000 C   0  0  0  0  0  0  0  0  0  0  0  0
   -2.6676   -2.9415   -0.0000 C   0  0  0  0  0  0  0  0  0  0  0  0
   -1.3576   -6.6927   -0.0000 C   0  0  0  0  0  0  0  0  0  0  0  0
   -3.9775   -6.6927   -0.0000 C   0  0  0  0  0  0  0  0  0  0  0  0
   -5.2756   -4.4301   -0.0000 C   0  0  0  0  0  0  0  0  0  0  0  0
   -5.2875   -5.9306   -0.0000 C   0  0  0  0  0  0  0  0  0  0  0  0
   -5.0612   -7.7288   -0.0000 C   0  0  0  0  0  0  0  0  0  0  0  0
   -3.6084   -8.1218   -0.0000 C   0  0  0  0  0  0  0  0  0  0  0  0
  1  2  1  0  0  0  0
  2  3  2  0  0  0  0
  2  4  1  0  0  0  0
  3  5  1  0  0  0  0
  3  6  1  0  0  0  0
  4  7  2  0  0  0  0
  5  8  2  0  0  0  0
  6  9  1  0  0  0  0
  6 10  1  0  0  0  0
  7 11  1  0  0  0  0
  8 12  1  0  0  0  0
 11 13  1  0  0  0  0
 11 14  1  0  0  0  0
 11 15  1  1  0  0  0
 12 16  1  0  0  0  0
 13 17  1  0  0  0  0
 14 18  1  0  0  0  0
 17 19  1  0  0  0  0
 17 20  1  0  0  0  0
 17 21  1  0  0  0  0
  7  8  1  0  0  0  0
 13 16  1  1  0  0  0
 18 19  1  0  0  0  0
M  END
>  <MolRegNo>
325341

>  <m>
=

>  <Value>
25

>  <Unit>
%

>  <Type>
Inhibition

>  <Ligand Efficiency>


>  <Binding Efficiency>


>  <Surface Efficiency>


>  <Assay Index>
294024

>  <Assay Category>


>  <Assay Organism>
SARS coronavirus

>  <Target ID>
100499

>  <Target Name>
SARS coronavirus

>  <Target Organism>
SARS coronavirus

>  <Target Description>
Target is a complete organism

>  <Sequence Accession>


>  <Reference>
J. Med. Chem. 50 (17), 4087-4095 (2007)

>  <Pubmed ID>
17663539

>  <DOI>
10.1021/jm070295s

>  <InChI-Key>
QXNWVJOHUAQHLM-UYAOXDASSA-N

>  <Molecular Formula>
C20H30O

>  <Monoisotopic Mass>
286.229665

>  <Druglikeness>
-5.1626

$$$$
Compound 461
Actelion Java MolfileCreator 1.0

 32 33  0  0  1  0  0  0  0  0999 V2000
    0.0000   -0.0000   -0.0000 O   0  0  0  0  0  0  0  0  0  0  0  0
   -0.7586    1.3157   -0.0000 C   0  0  0  0  0  0  0  0  0  0  0  0
   -0.0237    2.6313   -0.0000 O   0  0  0  0  0  0  0  0  0  0  0  0
   -2.2757    1.3275   -0.0000 N   0  0  0  0  0  0  0  0  0  0  0  0
    1.4697    2.6432   -0.0000 C   0  0  0  0  0  0  0  0  0  0  0  0
   -3.0343    0.0474   -0.0000 C   0  0  0  0  0  0  0  0  0  0  0  0
    2.9513    2.6432   -0.0000 C   0  0  0  0  0  0  0  0  0  0  0  0
    1.4697    4.1603   -0.0000 C   0  0  0  0  0  0  0  0  0  0  0  0
    1.4579    1.1497   -0.0000 C   0  0  0  0  0  0  0  0  0  0  0  0
   -2.2876   -1.2445   -0.0000 C   0  0  0  0  0  0  0  0  0  0  0  0
   -4.5515    0.0593   -0.0000 C   0  0  0  0  0  0  0  0  0  0  0  0
   -0.8060   -1.2327   -0.0000 O   0  0  0  0  0  0  0  0  0  0  0  0
   -2.2994   -2.7380   -0.0000 N   0  0  0  0  0  0  0  0  0  0  0  0
   -5.3100   -1.2327   -0.0000 N   0  0  0  0  0  0  0  0  0  0  0  0
   -5.3100    1.3749   -0.0000 C   0  0  0  0  0  0  0  0  0  0  0  0
   -1.5646   -4.0299   -0.0000 C   0  0  0  0  0  0  0  0  0  0  0  0
   -3.0580   -4.0299   -0.0000 C   0  0  0  0  0  0  0  0  0  0  0  0
   -6.7679   -1.6120   -0.0000 C   0  0  0  0  0  0  0  0  0  0  0  0
   -4.9307   -2.6669   -0.0000 C   0  0  0  0  0  0  0  0  0  0  0  0
   -6.8272    1.3868   -0.0000 C   0  0  0  0  0  0  0  0  0  0  0  0
   -4.5752    2.6906   -0.0000 C   0  0  0  0  0  0  0  0  0  0  0  0
   -0.2726   -4.7648   -0.0000 C   0  0  0  0  0  0  0  0  0  0  0  0
   -4.3737   -4.7767   -0.0000 C   0  0  0  0  0  0  0  0  0  0  0  0
   -6.3886   -3.0462   -0.0000 C   0  0  0  0  0  0  0  0  0  0  0  0
   -0.2845   -6.2583   -0.0000 O   0  0  0  0  0  0  0  0  0  0  0  0
    1.0193   -3.9944   -0.0000 O   0  0  0  0  0  0  0  0  0  0  0  0
   -5.6893   -4.0181   -0.0000 O   0  0  0  0  0  0  0  0  0  0  0  0
   -4.3855   -6.2701   -0.0000 O   0  0  0  0  0  0  0  0  0  0  0  0
    2.3113   -4.7292   -0.0000 C   0  0  0  0  0  0  0  0  0  0  0  0
   -5.7012   -7.0050   -0.0000 C   0  0  0  0  0  0  0  0  0  0  0  0
    3.6032   -3.9588   -0.0000 C   0  0  0  0  0  0  0  0  0  0  0  0
   -5.7130   -8.4984   -0.0000 C   0  0  0  0  0  0  0  0  0  0  0  0
  1  2  2  0  0  0  0
  2  3  1  0  0  0  0
  2  4  1  0  0  0  0
  3  5  1  0  0  0  0
  6  4  1  6  0  0  0
  5  7  1  0  0  0  0
  5  8  1  0  0  0  0
  5  9  1  0  0  0  0
  6 10  1  0  0  0  0
  6 11  1  0  0  0  0
 10 12  2  0  0  0  0
 10 13  1  0  0  0  0
 11 14  1  0  0  0  0
 11 15  1  0  0  0  0
 13 16  1  0  0  0  0
 13 17  1  0  0  0  0
 14 18  1  0  0  0  0
 14 19  1  0  0  0  0
 15 20  1  0  0  0  0
 15 21  1  0  0  0  0
 16 22  1  1  0  0  0
 17 23  1  6  0  0  0
 18 24  1  0  0  0  0
 22 25  2  0  0  0  0
 22 26  1  0  0  0  0
 23 27  2  0  0  0  0
 23 28  1  0  0  0  0
 26 29  1  0  0  0  0
 28 30  1  0  0  0  0
 29 31  1  0  0  0  0
 30 32  1  0  0  0  0
 16 17  1  0  0  0  0
 19 24  1  0  0  0  0
M  END
>  <MolRegNo>
333468

>  <m>
=

>  <Value>
16

>  <Unit>
%

>  <Type>
Inhibition

>  <Ligand Efficiency>


>  <Binding Efficiency>


>  <Surface Efficiency>


>  <Assay Index>
254531

>  <Assay Category>


>  <Assay Organism>
SARS coronavirus

>  <Target ID>
20012

>  <Target Name>
SARS coronavirus 3C-like proteinase

>  <Target Organism>
SARS coronavirus

>  <Target Description>
Target is a single protein chain

>  <Sequence Accession>
P0C6U8

>  <Reference>
Bioorg. Med. Chem. Lett. 15 (24), 5365-5369 (2005)

>  <Pubmed ID>
16216498

>  <DOI>
10.1016/j.bmcl.2005.09.012

>  <InChI-Key>
QYVDGKMGELXWPY-VCAIXKDPSA-N

>  <Molecular Formula>
C22H37N3O7

>  <Monoisotopic Mass>
455.263152

>  <Druglikeness>
-54.184

$$$$
Compound 462
Actelion Java MolfileCreator 1.0

 21 22  0  0  1  0  0  0  0  0999 V2000
    0.0000   -0.0000   -0.0000 O   0  0  0  0  0  0  0  0  0  0  0  0
   -0.0118    1.5005   -0.0000 C   0  0  0  0  0  0  0  0  0  0  0  0
    1.2760    2.2566   -0.0000 O   0  0  0  0  0  0  0  0  0  0  0  0
   -1.3114    2.2566   -0.0000 C   0  0  0  0  0  0  0  0  0  0  0  0
    2.5520    1.5241   -0.0000 C   0  0  0  0  0  0  0  0  0  0  0  0
   -2.0676    3.5680   -0.0000 N   0  0  0  0  0  0  0  0  0  0  0  0
   -2.8119    2.2684   -0.0000 C   0  0  0  0  0  0  0  0  0  0  0  0
   -2.0794    5.0685   -0.0000 C   0  0  0  0  0  0  0  0  0  0  0  0
   -3.3790    5.8246   -0.0000 C   0  0  0  0  0  0  0  0  0  0  0  0
   -0.8034    5.8246   -0.0000 C   0  0  0  0  0  0  0  0  0  0  0  0
   -4.6904    5.0921   -0.0000 O   0  0  0  0  0  0  0  0  0  0  0  0
   -3.3908    7.3251   -0.0000 O   0  0  0  0  0  0  0  0  0  0  0  0
   -0.8152    7.3251   -0.0000 C   0  0  0  0  0  0  0  0  0  0  0  0
    0.4726    5.0921   -0.0000 C   0  0  0  0  0  0  0  0  0  0  0  0
   -2.1148    8.0812   -0.0000 C   0  0  0  0  0  0  0  0  0  0  0  0
   -2.1384    9.5935   -0.0000 C   0  0  0  0  0  0  0  0  0  0  0  0
   -0.8507   10.3614   -0.0000 C   0  0  0  0  0  0  0  0  0  0  0  0
   -3.4499   10.3378   -0.0000 C   0  0  0  0  0  0  0  0  0  0  0  0
   -0.8743   11.8737   -0.0000 C   0  0  0  0  0  0  0  0  0  0  0  0
   -3.4853   11.8501   -0.0000 C   0  0  0  0  0  0  0  0  0  0  0  0
   -2.1975   12.6298   -0.0000 C   0  0  0  0  0  0  0  0  0  0  0  0
  1  2  2  0  0  0  0
  2  3  1  0  0  0  0
  2  4  1  0  0  0  0
  3  5  1  0  0  0  0
  4  6  1  0  0  0  0
  4  7  1  0  0  0  0
  8  6  1  6  0  0  0
  8  9  1  0  0  0  0
  8 10  1  0  0  0  0
  9 11  2  0  0  0  0
  9 12  1  0  0  0  0
 10 13  1  0  0  0  0
 10 14  1  0  0  0  0
 12 15  1  0  0  0  0
 15 16  1  0  0  0  0
 16 17  2  0  0  0  0
 16 18  1  0  0  0  0
 17 19  1  0  0  0  0
 18 20  2  0  0  0  0
 19 21  2  0  0  0  0
  6  7  1  0  0  0  0
 20 21  1  0  0  0  0
M  END
>  <MolRegNo>
333622

>  <m>
=

>  <Value>
20

>  <Unit>
%

>  <Type>
Inhibition

>  <Ligand Efficiency>


>  <Binding Efficiency>


>  <Surface Efficiency>


>  <Assay Index>
254531

>  <Assay Category>


>  <Assay Organism>
SARS coronavirus

>  <Target ID>
20012

>  <Target Name>
SARS coronavirus 3C-like proteinase

>  <Target Organism>
SARS coronavirus

>  <Target Description>
Target is a single protein chain

>  <Sequence Accession>
P0C6U8

>  <Reference>
Bioorg. Med. Chem. Lett. 15 (24), 5365-5369 (2005)

>  <Pubmed ID>
16216498

>  <DOI>
10.1016/j.bmcl.2005.09.012

>  <InChI-Key>
RAIAEPKIDQJTAC-UUCFBXCCSA-N

>  <Molecular Formula>
C16H21NO4

>  <Monoisotopic Mass>
291.147059

>  <Druglikeness>
0.498

$$$$
Compound 463
Actelion Java MolfileCreator 1.0

 25 27  0  0  0  0  0  0  0  0999 V2000
    0.0000   -0.0000   -0.0000 Cl  0  0  0  0  0  0  0  0  0  0  0  0
    1.2829   -0.7365   -0.0000 C   0  0  0  0  0  0  0  0  0  0  0  0
    2.5658    0.0238   -0.0000 C   0  0  0  0  0  0  0  0  0  0  0  0
    1.2710   -2.2332   -0.0000 C   0  0  0  0  0  0  0  0  0  0  0  0
    3.8486   -0.7127   -0.0000 C   0  0  0  0  0  0  0  0  0  0  0  0
    2.5539    1.5323   -0.0000 C   0  0  0  0  0  0  0  0  0  0  0  0
    2.5539   -2.9696   -0.0000 C   0  0  0  0  0  0  0  0  0  0  0  0
    5.1315    0.0475   -0.0000 Cl  0  0  0  0  0  0  0  0  0  0  0  0
    3.8368   -2.2094   -0.0000 C   0  0  0  0  0  0  0  0  0  0  0  0
    3.7417    2.4232   -0.0000 S   0  0  0  0  0  0  0  0  0  0  0  0
    1.3185    2.4113   -0.0000 N   0  0  0  0  0  0  0  0  0  0  0  0
    3.2666    3.8605   -0.0000 C   0  0  0  0  0  0  0  0  0  0  0  0
   -0.1901    2.4113   -0.0000 C   0  0  0  0  0  0  0  0  0  0  0  0
    1.7699    3.8486   -0.0000 C   0  0  0  0  0  0  0  0  0  0  0  0
   -0.9384    1.1166   -0.0000 N   0  0  0  0  0  0  0  0  0  0  0  0
   -0.9503    3.7180   -0.0000 N   0  0  0  0  0  0  0  0  0  0  0  0
    0.8790    5.0721   -0.0000 O   0  0  0  0  0  0  0  0  0  0  0  0
   -2.4470    1.1166   -0.0000 C   0  0  0  0  0  0  0  0  0  0  0  0
   -2.4588    3.7180   -0.0000 C   0  0  0  0  0  0  0  0  0  0  0  0
   -3.2191    2.4232   -0.0000 C   0  0  0  0  0  0  0  0  0  0  0  0
   -3.1953   -0.1782   -0.0000 C   0  0  0  0  0  0  0  0  0  0  0  0
   -3.2309    5.0246   -0.0000 C   0  0  0  0  0  0  0  0  0  0  0  0
   -4.0268   -1.4135   -0.0000 F   0  0  0  0  0  0  0  0  0  0  0  0
   -1.9243   -0.9503   -0.0000 F   0  0  0  0  0  0  0  0  0  0  0  0
   -4.4901    0.6058   -0.0000 F   0  0  0  0  0  0  0  0  0  0  0  0
  1  2  1  0  0  0  0
  2  3  2  0  0  0  0
  2  4  1  0  0  0  0
  3  5  1  0  0  0  0
  3  6  1  0  0  0  0
  4  7  2  0  0  0  0
  5  8  1  0  0  0  0
  5  9  2  0  0  0  0
  6 10  1  0  0  0  0
  6 11  1  0  0  0  0
 10 12  1  0  0  0  0
 11 13  1  0  0  0  0
 11 14  1  0  0  0  0
 13 15  2  0  0  0  0
 13 16  1  0  0  0  0
 14 17  2  0  0  0  0
 15 18  1  0  0  0  0
 16 19  2  0  0  0  0
 18 20  2  0  0  0  0
 18 21  1  0  0  0  0
 19 22  1  0  0  0  0
 21 23  1  0  0  0  0
 21 24  1  0  0  0  0
 21 25  1  0  0  0  0
  7  9  1  0  0  0  0
 12 14  1  0  0  0  0
 19 20  1  0  0  0  0
M  END
>  <MolRegNo>
379278

>  <m>
<=

>  <Value>
50

>  <Unit>
%

>  <Type>
Inhibition

>  <Ligand Efficiency>


>  <Binding Efficiency>


>  <Surface Efficiency>


>  <Assay Index>
406904

>  <Assay Category>


>  <Assay Organism>
SARS coronavirus

>  <Target ID>
101075

>  <Target Name>
Replicase polyprotein 1ab

>  <Target Organism>
SARS coronavirus

>  <Target Description>
Target is a single protein chain

>  <Sequence Accession>
P0C6X7

>  <Reference>
Bioorg. Med. Chem. Lett. 18 (23), 6110-6114 (2008)

>  <Pubmed ID>
18947995

>  <DOI>
10.1016/j.bmcl.2008.10.023

>  <InChI-Key>
RCRBVTFUVCYAKZ-UHFFFAOYSA-N

>  <Molecular Formula>
C15H10N3OCl2F3S

>  <Monoisotopic Mass>
406.987370

>  <Druglikeness>
-4.4033

$$$$
Compound 464
Actelion Java MolfileCreator 1.0

 20 22  0  0  0  0  0  0  0  0999 V2000
    0.0000   -0.0000   -0.0000 Cl  0  0  0  0  0  0  0  0  0  0  0  0
    1.2825   -0.7363   -0.0000 C   0  0  0  0  0  0  0  0  0  0  0  0
    2.5651    0.0238   -0.0000 C   0  0  0  0  0  0  0  0  0  0  0  0
    1.2707   -2.2207   -0.0000 C   0  0  0  0  0  0  0  0  0  0  0  0
    3.8476   -0.7125   -0.0000 C   0  0  0  0  0  0  0  0  0  0  0  0
    2.5532    1.5319   -0.0000 C   0  0  0  0  0  0  0  0  0  0  0  0
    2.5532   -2.9570   -0.0000 C   0  0  0  0  0  0  0  0  0  0  0  0
    5.1302    0.0475   -0.0000 Cl  0  0  0  0  0  0  0  0  0  0  0  0
    3.8357   -2.2088   -0.0000 C   0  0  0  0  0  0  0  0  0  0  0  0
    3.7407    2.4226   -0.0000 S   0  0  0  0  0  0  0  0  0  0  0  0
    1.3182    2.4107   -0.0000 N   0  0  0  0  0  0  0  0  0  0  0  0
    3.2657    3.8595   -0.0000 C   0  0  0  0  0  0  0  0  0  0  0  0
    1.7694    3.8476   -0.0000 C   0  0  0  0  0  0  0  0  0  0  0  0
   -0.2019    2.4226   -0.0000 C   0  0  0  0  0  0  0  0  0  0  0  0
    0.8788    5.0708   -0.0000 O   0  0  0  0  0  0  0  0  0  0  0  0
   -1.0688    3.6576   -0.0000 C   0  0  0  0  0  0  0  0  0  0  0  0
   -0.5938    5.0945   -0.0000 O   0  0  0  0  0  0  0  0  0  0  0  0
   -2.5770    3.7051   -0.0000 C   0  0  0  0  0  0  0  0  0  0  0  0
   -1.8051    6.0089   -0.0000 C   0  0  0  0  0  0  0  0  0  0  0  0
   -3.0282    5.1539   -0.0000 C   0  0  0  0  0  0  0  0  0  0  0  0
  1  2  1  0  0  0  0
  2  3  2  0  0  0  0
  2  4  1  0  0  0  0
  3  5  1  0  0  0  0
  3  6  1  0  0  0  0
  4  7  2  0  0  0  0
  5  8  1  0  0  0  0
  5  9  2  0  0  0  0
  6 10  1  0  0  0  0
  6 11  1  0  0  0  0
 10 12  1  0  0  0  0
 11 13  1  0  0  0  0
 11 14  1  0  0  0  0
 13 15  2  0  0  0  0
 14 16  1  0  0  0  0
 16 17  1  0  0  0  0
 16 18  2  0  0  0  0
 17 19  1  0  0  0  0
 18 20  1  0  0  0  0
  7  9  1  0  0  0  0
 12 13  1  0  0  0  0
 19 20  2  0  0  0  0
M  END
>  <MolRegNo>
452994

>  <m>
<=

>  <Value>
50

>  <Unit>
%

>  <Type>
Inhibition

>  <Ligand Efficiency>


>  <Binding Efficiency>


>  <Surface Efficiency>


>  <Assay Index>
406904

>  <Assay Category>


>  <Assay Organism>
SARS coronavirus

>  <Target ID>
101075

>  <Target Name>
Replicase polyprotein 1ab

>  <Target Organism>
SARS coronavirus

>  <Target Description>
Target is a single protein chain

>  <Sequence Accession>
P0C6X7

>  <Reference>
Bioorg. Med. Chem. Lett. 18 (23), 6110-6114 (2008)

>  <Pubmed ID>
18947995

>  <DOI>
10.1016/j.bmcl.2008.10.023

>  <InChI-Key>
RDGDIVQKAVGUJX-UHFFFAOYSA-N

>  <Molecular Formula>
C14H11NO2Cl2S

>  <Monoisotopic Mass>
326.988753

>  <Druglikeness>
4.04

$$$$
Compound 465
Actelion Java MolfileCreator 1.0

 22 24  0  0  0  0  0  0  0  0999 V2000
    0.0000   -0.0000   -0.0000 O   0  0  0  0  0  0  0  0  0  0  0  0
   -0.0118    1.5078   -0.0000 C   0  0  0  0  0  0  0  0  0  0  0  0
   -1.3193    2.2617   -0.0000 C   0  0  0  0  0  0  0  0  0  0  0  0
    1.2722    2.2617   -0.0000 C   0  0  0  0  0  0  0  0  0  0  0  0
   -2.6268    1.5196   -0.0000 O   0  0  0  0  0  0  0  0  0  0  0  0
   -1.3311    3.7694   -0.0000 C   0  0  0  0  0  0  0  0  0  0  0  0
    1.2604    3.7694   -0.0000 C   0  0  0  0  0  0  0  0  0  0  0  0
    2.5562    1.5196   -0.0000 C   0  0  0  0  0  0  0  0  0  0  0  0
   -0.0471    4.5233   -0.0000 O   0  0  0  0  0  0  0  0  0  0  0  0
   -2.6386    4.5233   -0.0000 C   0  0  0  0  0  0  0  0  0  0  0  0
    2.5444    4.5233   -0.0000 C   0  0  0  0  0  0  0  0  0  0  0  0
    2.5444    0.0353   -0.0000 O   0  0  0  0  0  0  0  0  0  0  0  0
    3.8401    2.2734   -0.0000 C   0  0  0  0  0  0  0  0  0  0  0  0
   -3.9461    3.7930   -0.0000 C   0  0  0  0  0  0  0  0  0  0  0  0
   -2.6504    6.0311   -0.0000 C   0  0  0  0  0  0  0  0  0  0  0  0
    3.8283    3.7930   -0.0000 C   0  0  0  0  0  0  0  0  0  0  0  0
   -5.2537    4.5469   -0.0000 C   0  0  0  0  0  0  0  0  0  0  0  0
   -3.9579    6.7850   -0.0000 C   0  0  0  0  0  0  0  0  0  0  0  0
    5.1123    4.5469   -0.0000 O   0  0  0  0  0  0  0  0  0  0  0  0
   -6.5612    3.8166   -0.0000 O   0  0  0  0  0  0  0  0  0  0  0  0
   -5.2654    6.0547   -0.0000 C   0  0  0  0  0  0  0  0  0  0  0  0
   -6.5730    6.8086   -0.0000 O   0  0  0  0  0  0  0  0  0  0  0  0
  1  2  2  0  0  0  0
  2  3  1  0  0  0  0
  2  4  1  0  0  0  0
  3  5  1  0  0  0  0
  3  6  2  0  0  0  0
  4  7  2  0  0  0  0
  4  8  1  0  0  0  0
  6  9  1  0  0  0  0
  6 10  1  0  0  0  0
  7 11  1  0  0  0  0
  8 12  1  0  0  0  0
  8 13  2  0  0  0  0
 10 14  2  0  0  0  0
 10 15  1  0  0  0  0
 11 16  2  0  0  0  0
 14 17  1  0  0  0  0
 15 18  2  0  0  0  0
 16 19  1  0  0  0  0
 17 20  1  0  0  0  0
 17 21  2  0  0  0  0
 21 22  1  0  0  0  0
  7  9  1  0  0  0  0
 13 16  1  0  0  0  0
 18 21  1  0  0  0  0
M  END
>  <MolRegNo>
3666

>  <m>
>

>  <Value>
50000

>  <Unit>
nM

>  <Type>
IC50

>  <Ligand Efficiency>


>  <Binding Efficiency>


>  <Surface Efficiency>


>  <Assay Index>
426933

>  <Assay Category>


>  <Assay Organism>
SARS coronavirus

>  <Target ID>
101075

>  <Target Name>
Replicase polyprotein 1ab

>  <Target Organism>
SARS coronavirus

>  <Target Description>
Target is a single protein chain

>  <Sequence Accession>
P0C6X7

>  <Reference>
Bioorg. Med. Chem. Lett. 19 (16), 4538-4541 (2009)

>  <Pubmed ID>
19625187

>  <DOI>
10.1016/j.bmcl.2009.07.009

>  <InChI-Key>
REFJWTPEDVJJIY-UHFFFAOYSA-N

>  <Molecular Formula>
C15H10O7

>  <Monoisotopic Mass>
302.042655

>  <Druglikeness>
-0.082832

$$$$
Compound 466
Actelion Java MolfileCreator 1.0

 22 24  0  0  0  0  0  0  0  0999 V2000
    0.0000   -0.0000   -0.0000 O   0  0  0  0  0  0  0  0  0  0  0  0
   -0.0118    1.5078   -0.0000 C   0  0  0  0  0  0  0  0  0  0  0  0
   -1.3193    2.2617   -0.0000 C   0  0  0  0  0  0  0  0  0  0  0  0
    1.2722    2.2617   -0.0000 C   0  0  0  0  0  0  0  0  0  0  0  0
   -2.6268    1.5196   -0.0000 O   0  0  0  0  0  0  0  0  0  0  0  0
   -1.3311    3.7694   -0.0000 C   0  0  0  0  0  0  0  0  0  0  0  0
    1.2604    3.7694   -0.0000 C   0  0  0  0  0  0  0  0  0  0  0  0
    2.5562    1.5196   -0.0000 C   0  0  0  0  0  0  0  0  0  0  0  0
   -0.0471    4.5233   -0.0000 O   0  0  0  0  0  0  0  0  0  0  0  0
   -2.6386    4.5233   -0.0000 C   0  0  0  0  0  0  0  0  0  0  0  0
    2.5444    4.5233   -0.0000 C   0  0  0  0  0  0  0  0  0  0  0  0
    2.5444    0.0353   -0.0000 O   0  0  0  0  0  0  0  0  0  0  0  0
    3.8401    2.2734   -0.0000 C   0  0  0  0  0  0  0  0  0  0  0  0
   -3.9461    3.7930   -0.0000 C   0  0  0  0  0  0  0  0  0  0  0  0
   -2.6504    6.0311   -0.0000 C   0  0  0  0  0  0  0  0  0  0  0  0
    3.8283    3.7930   -0.0000 C   0  0  0  0  0  0  0  0  0  0  0  0
   -5.2537    4.5469   -0.0000 C   0  0  0  0  0  0  0  0  0  0  0  0
   -3.9579    6.7850   -0.0000 C   0  0  0  0  0  0  0  0  0  0  0  0
    5.1123    4.5469   -0.0000 O   0  0  0  0  0  0  0  0  0  0  0  0
   -6.5612    3.8166   -0.0000 O   0  0  0  0  0  0  0  0  0  0  0  0
   -5.2654    6.0547   -0.0000 C   0  0  0  0  0  0  0  0  0  0  0  0
   -6.5730    6.8086   -0.0000 O   0  0  0  0  0  0  0  0  0  0  0  0
  1  2  2  0  0  0  0
  2  3  1  0  0  0  0
  2  4  1  0  0  0  0
  3  5  1  0  0  0  0
  3  6  2  0  0  0  0
  4  7  2  0  0  0  0
  4  8  1  0  0  0  0
  6  9  1  0  0  0  0
  6 10  1  0  0  0  0
  7 11  1  0  0  0  0
  8 12  1  0  0  0  0
  8 13  2  0  0  0  0
 10 14  2  0  0  0  0
 10 15  1  0  0  0  0
 11 16  2  0  0  0  0
 14 17  1  0  0  0  0
 15 18  2  0  0  0  0
 16 19  1  0  0  0  0
 17 20  1  0  0  0  0
 17 21  2  0  0  0  0
 21 22  1  0  0  0  0
  7  9  1  0  0  0  0
 13 16  1  0  0  0  0
 18 21  1  0  0  0  0
M  END
>  <MolRegNo>
3666

>  <m>
=

>  <Value>
8100

>  <Unit>
nM

>  <Type>
IC50

>  <Ligand Efficiency>
0.32

>  <Binding Efficiency>
16.85

>  <Surface Efficiency>
3.88

>  <Assay Index>
426934

>  <Assay Category>


>  <Assay Organism>
SARS coronavirus

>  <Target ID>
101075

>  <Target Name>
Replicase polyprotein 1ab

>  <Target Organism>
SARS coronavirus

>  <Target Description>
Target is a single protein chain

>  <Sequence Accession>
P0C6X7

>  <Reference>
Bioorg. Med. Chem. Lett. 19 (16), 4538-4541 (2009)

>  <Pubmed ID>
19625187

>  <DOI>
10.1016/j.bmcl.2009.07.009

>  <InChI-Key>
REFJWTPEDVJJIY-UHFFFAOYSA-N

>  <Molecular Formula>
C15H10O7

>  <Monoisotopic Mass>
302.042655

>  <Druglikeness>
-0.082832

$$$$
Compound 467
Actelion Java MolfileCreator 1.0

 51 53  0  0  1  0  0  0  0  0999 V2000
    0.0000   -0.0000   -0.0000 Cl  0  0  0  0  0  0  0  0  0  0  0  0
   -1.3153   -0.7347   -0.0000 C   0  0  0  0  0  0  0  0  0  0  0  0
   -1.3272   -2.2278   -0.0000 C   0  0  0  0  0  0  0  0  0  0  0  0
   -2.6188    0.0237   -0.0000 C   0  0  0  0  0  0  0  0  0  0  0  0
   -2.6425   -2.9506   -0.0000 N   0  0  0  0  0  0  0  0  0  0  0  0
   -3.9223   -0.7110   -0.0000 C   0  0  0  0  0  0  0  0  0  0  0  0
   -3.9460   -2.1804   -0.0000 C   0  0  0  0  0  0  0  0  0  0  0  0
   -5.2258    0.0592   -0.0000 O   0  0  0  0  0  0  0  0  0  0  0  0
   -6.5412   -0.6636   -0.0000 C   0  0  0  0  0  0  0  0  0  0  0  0
   -6.5649   -2.1448   -0.0000 O   0  0  0  0  0  0  0  0  0  0  0  0
   -7.8447    0.1066   -0.0000 C   0  0  0  0  0  0  0  0  0  0  0  0
   -9.1600   -0.6162   -0.0000 N   0  0  0  0  0  0  0  0  0  0  0  0
   -7.8447    1.6116   -0.0000 C   0  0  0  0  0  0  0  0  0  0  0  0
  -10.4635    0.1540   -0.0000 C   0  0  0  0  0  0  0  0  0  0  0  0
   -6.5530    2.3581   -0.0000 C   0  0  0  0  0  0  0  0  0  0  0  0
  -10.4635    1.6590   -0.0000 O   0  0  0  0  0  0  0  0  0  0  0  0
  -11.7789   -0.5688   -0.0000 C   0  0  0  0  0  0  0  0  0  0  0  0
   -6.4108    3.8512   -0.0000 C   0  0  0  0  0  0  0  0  0  0  0  0
   -5.2140    1.7538   -0.0000 C   0  0  0  0  0  0  0  0  0  0  0  0
  -13.0824    0.2014   -0.0000 N   0  0  0  0  0  0  0  0  0  0  0  0
  -11.8026   -2.0500   -0.0000 C   0  0  0  0  0  0  0  0  0  0  0  0
   -7.5366    4.8703   -0.0000 O   0  0  0  0  0  0  0  0  0  0  0  0
   -4.9533    4.1712   -0.0000 N   0  0  0  0  0  0  0  0  0  0  0  0
   -4.2186    2.8677   -0.0000 C   0  0  0  0  0  0  0  0  0  0  0  0
  -14.3977   -0.5214   -0.0000 C   0  0  0  0  0  0  0  0  0  0  0  0
  -10.5228   -2.7966   -0.0000 C   0  0  0  0  0  0  0  0  0  0  0  0
  -14.4214   -2.0026   -0.0000 O   0  0  0  0  0  0  0  0  0  0  0  0
  -15.7012    0.2488   -0.0000 C   0  0  0  0  0  0  0  0  0  0  0  0
  -10.5465   -4.2778   -0.0000 C   0  0  0  0  0  0  0  0  0  0  0  0
   -9.2311   -2.0500   -0.0000 C   0  0  0  0  0  0  0  0  0  0  0  0
  -17.0166   -0.4740   -0.0000 N   0  0  0  0  0  0  0  0  0  0  0  0
  -15.7012    1.7538   -0.0000 C   0  0  0  0  0  0  0  0  0  0  0  0
  -18.3201    0.2962   -0.0000 C   0  0  0  0  0  0  0  0  0  0  0  0
  -17.0047    2.5240   -0.0000 O   0  0  0  0  0  0  0  0  0  0  0  0
  -14.4096    2.5003   -0.0000 C   0  0  0  0  0  0  0  0  0  0  0  0
  -18.3201    1.8012   -0.0000 O   0  0  0  0  0  0  0  0  0  0  0  0
  -19.6354   -0.4266   -0.0000 C   0  0  0  0  0  0  0  0  0  0  0  0
  -17.0047    4.0290   -0.0000 C   0  0  0  0  0  0  0  0  0  0  0  0
  -20.9389    0.3436   -0.0000 N   0  0  0  0  0  0  0  0  0  0  0  0
  -19.6591   -1.9078   -0.0000 C   0  0  0  0  0  0  0  0  0  0  0  0
  -18.3082    4.7992   -0.0000 C   0  0  0  0  0  0  0  0  0  0  0  0
  -22.2543   -0.3792   -0.0000 C   0  0  0  0  0  0  0  0  0  0  0  0
  -20.9745   -2.6307   -0.0000 C   0  0  0  0  0  0  0  0  0  0  0  0
  -18.3793   -2.6544   -0.0000 C   0  0  0  0  0  0  0  0  0  0  0  0
  -18.2964    6.3042   -0.0000 C   0  0  0  0  0  0  0  0  0  0  0  0
  -19.6117    4.0764   -0.0000 C   0  0  0  0  0  0  0  0  0  0  0  0
  -22.2780   -1.8604   -0.0000 O   0  0  0  0  0  0  0  0  0  0  0  0
  -23.5578    0.3910   -0.0000 C   0  0  0  0  0  0  0  0  0  0  0  0
  -19.5999    7.0744   -0.0000 C   0  0  0  0  0  0  0  0  0  0  0  0
  -20.9152    4.8348   -0.0000 C   0  0  0  0  0  0  0  0  0  0  0  0
  -20.9152    6.3634   -0.0000 C   0  0  0  0  0  0  0  0  0  0  0  0
  1  2  1  0  0  0  0
  2  3  2  0  0  0  0
  2  4  1  0  0  0  0
  3  5  1  0  0  0  0
  4  6  2  0  0  0  0
  5  7  2  0  0  0  0
  6  8  1  0  0  0  0
  8  9  1  0  0  0  0
  9 10  2  0  0  0  0
  9 11  1  0  0  0  0
 11 12  1  1  0  0  0
 11 13  1  0  0  0  0
 12 14  1  0  0  0  0
 15 13  1  1  0  0  0
 14 16  2  0  0  0  0
 14 17  1  0  0  0  0
 15 18  1  0  0  0  0
 15 19  1  0  0  0  0
 17 20  1  6  0  0  0
 17 21  1  0  0  0  0
 18 22  2  0  0  0  0
 18 23  1  0  0  0  0
 19 24  1  0  0  0  0
 20 25  1  0  0  0  0
 21 26  1  0  0  0  0
 25 27  2  0  0  0  0
 25 28  1  0  0  0  0
 26 29  1  0  0  0  0
 26 30  1  0  0  0  0
 28 31  1  1  0  0  0
 28 32  1  0  0  0  0
 31 33  1  0  0  0  0
 32 34  1  6  0  0  0
 32 35  1  0  0  0  0
 33 36  2  0  0  0  0
 33 37  1  0  0  0  0
 34 38  1  0  0  0  0
 37 39  1  6  0  0  0
 37 40  1  0  0  0  0
 38 41  1  0  0  0  0
 39 42  1  0  0  0  0
 40 43  1  0  0  0  0
 40 44  1  0  0  0  0
 41 45  2  0  0  0  0
 41 46  1  0  0  0  0
 42 47  2  0  0  0  0
 42 48  1  0  0  0  0
 45 49  1  0  0  0  0
 46 50  2  0  0  0  0
 49 51  2  0  0  0  0
  6  7  1  0  0  0  0
 23 24  1  0  0  0  0
 50 51  1  0  0  0  0
M  END
>  <MolRegNo>
371777

>  <m>
<

>  <Value>
10

>  <Unit>
%

>  <Type>
Inhibition

>  <Ligand Efficiency>


>  <Binding Efficiency>


>  <Surface Efficiency>


>  <Assay Index>
278390

>  <Assay Category>


>  <Assay Organism>
SARS coronavirus

>  <Target ID>
20012

>  <Target Name>
SARS coronavirus 3C-like proteinase

>  <Target Organism>
SARS coronavirus

>  <Target Description>
Target is a single protein chain

>  <Sequence Accession>
P0C6U8

>  <Reference>
J. Med. Chem. 50 (8), 1850-1864 (2007)

>  <Pubmed ID>
17381079

>  <DOI>
10.1021/jm061425k

>  <InChI-Key>
REODLIPSEBQOEV-IYHONCPISA-N

>  <Molecular Formula>
C36H49N6O8Cl

>  <Monoisotopic Mass>
728.330041

>  <Druglikeness>
1.5091

$$$$
Compound 468
Actelion Java MolfileCreator 1.0

 21 22  0  0  0  0  0  0  0  0999 V2000
    0.0000   -0.0000   -0.0000 Cl  0  0  0  0  0  0  0  0  0  0  0  0
    1.2528   -0.7919   -0.0000 C   0  0  0  0  0  0  0  0  0  0  0  0
    2.5766   -0.0827   -0.0000 C   0  0  0  0  0  0  0  0  0  0  0  0
    1.1701   -2.2811   -0.0000 C   0  0  0  0  0  0  0  0  0  0  0  0
    2.6357    1.4301   -0.0000 N   0  0  0  0  0  0  0  0  0  0  0  0
    3.8295   -0.8746   -0.0000 C   0  0  0  0  0  0  0  0  0  0  0  0
    2.4230   -3.0730   -0.0000 C   0  0  0  0  0  0  0  0  0  0  0  0
    3.9595    2.1275   -0.0000 C   0  0  0  0  0  0  0  0  0  0  0  0
    3.7467   -2.3639   -0.0000 C   0  0  0  0  0  0  0  0  0  0  0  0
    2.3402   -4.5623   -0.0000 N   0  0  0  0  0  0  0  0  0  0  0  0
    5.2123    1.3356   -0.0000 O   0  0  0  0  0  0  0  0  0  0  0  0
    4.0186    3.6404   -0.0000 C   0  0  0  0  0  0  0  0  0  0  0  0
    3.5931   -5.3542   -0.0000 O   0  0  0  0  0  0  0  0  0  0  0  0
    0.9928   -5.2478   -0.0000 O   0  0  0  0  0  0  0  0  0  0  0  0
    5.3423    4.3377   -0.0000 C   0  0  0  0  0  0  0  0  0  0  0  0
    2.7421    4.4559   -0.0000 C   0  0  0  0  0  0  0  0  0  0  0  0
    6.5952    3.5340   -0.0000 O   0  0  0  0  0  0  0  0  0  0  0  0
    5.4014    5.8506   -0.0000 C   0  0  0  0  0  0  0  0  0  0  0  0
    2.7894    5.9688   -0.0000 C   0  0  0  0  0  0  0  0  0  0  0  0
    4.1249    6.6779   -0.0000 C   0  0  0  0  0  0  0  0  0  0  0  0
    1.5129    6.7843   -0.0000 Cl  0  0  0  0  0  0  0  0  0  0  0  0
  1  2  1  0  0  0  0
  2  3  2  0  0  0  0
  2  4  1  0  0  0  0
  3  5  1  0  0  0  0
  3  6  1  0  0  0  0
  4  7  2  0  0  0  0
  5  8  1  0  0  0  0
  6  9  2  0  0  0  0
  7 10  1  0  0  0  0
  8 11  2  0  0  0  0
  8 12  1  0  0  0  0
 10 13  2  0  0  0  0
 10 14  1  0  0  0  0
 12 15  2  0  0  0  0
 12 16  1  0  0  0  0
 15 17  1  0  0  0  0
 15 18  1  0  0  0  0
 16 19  2  0  0  0  0
 18 20  2  0  0  0  0
 19 21  1  0  0  0  0
  7  9  1  0  0  0  0
 19 20  1  0  0  0  0
M  CHG  2  10   1  14  -1
M  END
>  <MolRegNo>
378218

>  <m>
<

>  <Value>
100

>  <Unit>
nM

>  <Type>
EC50

>  <Ligand Efficiency>


>  <Binding Efficiency>


>  <Surface Efficiency>


>  <Assay Index>
294026

>  <Assay Category>


>  <Assay Organism>
SARS coronavirus

>  <Target ID>
100499

>  <Target Name>
SARS coronavirus

>  <Target Organism>
SARS coronavirus

>  <Target Description>
Target is a complete organism

>  <Sequence Accession>


>  <Reference>
J. Med. Chem. 50 (17), 4087-4095 (2007)

>  <Pubmed ID>
17663539

>  <DOI>
10.1021/jm070295s

>  <InChI-Key>
RJMUSRYZPJIFPJ-UHFFFAOYSA-N

>  <Molecular Formula>
C13H8N2O4Cl2

>  <Monoisotopic Mass>
325.986112

>  <Druglikeness>
-4.3463

$$$$
Compound 469
Actelion Java MolfileCreator 1.0

 21 22  0  0  0  0  0  0  0  0999 V2000
    0.0000   -0.0000   -0.0000 Cl  0  0  0  0  0  0  0  0  0  0  0  0
    1.2528   -0.7919   -0.0000 C   0  0  0  0  0  0  0  0  0  0  0  0
    2.5766   -0.0827   -0.0000 C   0  0  0  0  0  0  0  0  0  0  0  0
    1.1701   -2.2811   -0.0000 C   0  0  0  0  0  0  0  0  0  0  0  0
    2.6357    1.4301   -0.0000 N   0  0  0  0  0  0  0  0  0  0  0  0
    3.8295   -0.8746   -0.0000 C   0  0  0  0  0  0  0  0  0  0  0  0
    2.4230   -3.0730   -0.0000 C   0  0  0  0  0  0  0  0  0  0  0  0
    3.9595    2.1275   -0.0000 C   0  0  0  0  0  0  0  0  0  0  0  0
    3.7467   -2.3639   -0.0000 C   0  0  0  0  0  0  0  0  0  0  0  0
    2.3402   -4.5623   -0.0000 N   0  0  0  0  0  0  0  0  0  0  0  0
    5.2123    1.3356   -0.0000 O   0  0  0  0  0  0  0  0  0  0  0  0
    4.0186    3.6404   -0.0000 C   0  0  0  0  0  0  0  0  0  0  0  0
    3.5931   -5.3542   -0.0000 O   0  0  0  0  0  0  0  0  0  0  0  0
    0.9928   -5.2478   -0.0000 O   0  0  0  0  0  0  0  0  0  0  0  0
    5.3423    4.3377   -0.0000 C   0  0  0  0  0  0  0  0  0  0  0  0
    2.7421    4.4559   -0.0000 C   0  0  0  0  0  0  0  0  0  0  0  0
    6.5952    3.5340   -0.0000 O   0  0  0  0  0  0  0  0  0  0  0  0
    5.4014    5.8506   -0.0000 C   0  0  0  0  0  0  0  0  0  0  0  0
    2.7894    5.9688   -0.0000 C   0  0  0  0  0  0  0  0  0  0  0  0
    4.1249    6.6779   -0.0000 C   0  0  0  0  0  0  0  0  0  0  0  0
    1.5129    6.7843   -0.0000 Cl  0  0  0  0  0  0  0  0  0  0  0  0
  1  2  1  0  0  0  0
  2  3  2  0  0  0  0
  2  4  1  0  0  0  0
  3  5  1  0  0  0  0
  3  6  1  0  0  0  0
  4  7  2  0  0  0  0
  5  8  1  0  0  0  0
  6  9  2  0  0  0  0
  7 10  1  0  0  0  0
  8 11  2  0  0  0  0
  8 12  1  0  0  0  0
 10 13  2  0  0  0  0
 10 14  1  0  0  0  0
 12 15  2  0  0  0  0
 12 16  1  0  0  0  0
 15 17  1  0  0  0  0
 15 18  1  0  0  0  0
 16 19  2  0  0  0  0
 18 20  2  0  0  0  0
 19 21  1  0  0  0  0
  7  9  1  0  0  0  0
 19 20  1  0  0  0  0
M  CHG  2  10   1  14  -1
M  END
>  <MolRegNo>
378218

>  <m>
=

>  <Value>
50

>  <Unit>
%

>  <Type>
Inhibition

>  <Ligand Efficiency>


>  <Binding Efficiency>


>  <Surface Efficiency>


>  <Assay Index>
294025

>  <Assay Category>


>  <Assay Organism>
SARS coronavirus

>  <Target ID>
100499

>  <Target Name>
SARS coronavirus

>  <Target Organism>
SARS coronavirus

>  <Target Description>
Target is a complete organism

>  <Sequence Accession>


>  <Reference>
J. Med. Chem. 50 (17), 4087-4095 (2007)

>  <Pubmed ID>
17663539

>  <DOI>
10.1021/jm070295s

>  <InChI-Key>
RJMUSRYZPJIFPJ-UHFFFAOYSA-N

>  <Molecular Formula>
C13H8N2O4Cl2

>  <Monoisotopic Mass>
325.986112

>  <Druglikeness>
-4.3463

$$$$
Compound 470
Actelion Java MolfileCreator 1.0

 21 22  0  0  0  0  0  0  0  0999 V2000
    0.0000   -0.0000   -0.0000 Cl  0  0  0  0  0  0  0  0  0  0  0  0
    1.2528   -0.7919   -0.0000 C   0  0  0  0  0  0  0  0  0  0  0  0
    2.5766   -0.0827   -0.0000 C   0  0  0  0  0  0  0  0  0  0  0  0
    1.1701   -2.2811   -0.0000 C   0  0  0  0  0  0  0  0  0  0  0  0
    2.6357    1.4301   -0.0000 N   0  0  0  0  0  0  0  0  0  0  0  0
    3.8295   -0.8746   -0.0000 C   0  0  0  0  0  0  0  0  0  0  0  0
    2.4230   -3.0730   -0.0000 C   0  0  0  0  0  0  0  0  0  0  0  0
    3.9595    2.1275   -0.0000 C   0  0  0  0  0  0  0  0  0  0  0  0
    3.7467   -2.3639   -0.0000 C   0  0  0  0  0  0  0  0  0  0  0  0
    2.3402   -4.5623   -0.0000 N   0  0  0  0  0  0  0  0  0  0  0  0
    5.2123    1.3356   -0.0000 O   0  0  0  0  0  0  0  0  0  0  0  0
    4.0186    3.6404   -0.0000 C   0  0  0  0  0  0  0  0  0  0  0  0
    3.5931   -5.3542   -0.0000 O   0  0  0  0  0  0  0  0  0  0  0  0
    0.9928   -5.2478   -0.0000 O   0  0  0  0  0  0  0  0  0  0  0  0
    5.3423    4.3377   -0.0000 C   0  0  0  0  0  0  0  0  0  0  0  0
    2.7421    4.4559   -0.0000 C   0  0  0  0  0  0  0  0  0  0  0  0
    6.5952    3.5340   -0.0000 O   0  0  0  0  0  0  0  0  0  0  0  0
    5.4014    5.8506   -0.0000 C   0  0  0  0  0  0  0  0  0  0  0  0
    2.7894    5.9688   -0.0000 C   0  0  0  0  0  0  0  0  0  0  0  0
    4.1249    6.6779   -0.0000 C   0  0  0  0  0  0  0  0  0  0  0  0
    1.5129    6.7843   -0.0000 Cl  0  0  0  0  0  0  0  0  0  0  0  0
  1  2  1  0  0  0  0
  2  3  2  0  0  0  0
  2  4  1  0  0  0  0
  3  5  1  0  0  0  0
  3  6  1  0  0  0  0
  4  7  2  0  0  0  0
  5  8  1  0  0  0  0
  6  9  2  0  0  0  0
  7 10  1  0  0  0  0
  8 11  2  0  0  0  0
  8 12  1  0  0  0  0
 10 13  2  0  0  0  0
 10 14  1  0  0  0  0
 12 15  2  0  0  0  0
 12 16  1  0  0  0  0
 15 17  1  0  0  0  0
 15 18  1  0  0  0  0
 16 19  2  0  0  0  0
 18 20  2  0  0  0  0
 19 21  1  0  0  0  0
  7  9  1  0  0  0  0
 19 20  1  0  0  0  0
M  CHG  2  10   1  14  -1
M  END
>  <MolRegNo>
378218

>  <m>
<

>  <Value>
25

>  <Unit>
%

>  <Type>
Inhibition

>  <Ligand Efficiency>


>  <Binding Efficiency>


>  <Surface Efficiency>


>  <Assay Index>
294022

>  <Assay Category>


>  <Assay Organism>
SARS coronavirus

>  <Target ID>
100499

>  <Target Name>
SARS coronavirus

>  <Target Organism>
SARS coronavirus

>  <Target Description>
Target is a complete organism

>  <Sequence Accession>


>  <Reference>
J. Med. Chem. 50 (17), 4087-4095 (2007)

>  <Pubmed ID>
17663539

>  <DOI>
10.1021/jm070295s

>  <InChI-Key>
RJMUSRYZPJIFPJ-UHFFFAOYSA-N

>  <Molecular Formula>
C13H8N2O4Cl2

>  <Monoisotopic Mass>
325.986112

>  <Druglikeness>
-4.3463

$$$$
Compound 471
Actelion Java MolfileCreator 1.0

 21 22  0  0  0  0  0  0  0  0999 V2000
    0.0000   -0.0000   -0.0000 Cl  0  0  0  0  0  0  0  0  0  0  0  0
    1.2528   -0.7919   -0.0000 C   0  0  0  0  0  0  0  0  0  0  0  0
    2.5766   -0.0827   -0.0000 C   0  0  0  0  0  0  0  0  0  0  0  0
    1.1701   -2.2811   -0.0000 C   0  0  0  0  0  0  0  0  0  0  0  0
    2.6357    1.4301   -0.0000 N   0  0  0  0  0  0  0  0  0  0  0  0
    3.8295   -0.8746   -0.0000 C   0  0  0  0  0  0  0  0  0  0  0  0
    2.4230   -3.0730   -0.0000 C   0  0  0  0  0  0  0  0  0  0  0  0
    3.9595    2.1275   -0.0000 C   0  0  0  0  0  0  0  0  0  0  0  0
    3.7467   -2.3639   -0.0000 C   0  0  0  0  0  0  0  0  0  0  0  0
    2.3402   -4.5623   -0.0000 N   0  0  0  0  0  0  0  0  0  0  0  0
    5.2123    1.3356   -0.0000 O   0  0  0  0  0  0  0  0  0  0  0  0
    4.0186    3.6404   -0.0000 C   0  0  0  0  0  0  0  0  0  0  0  0
    3.5931   -5.3542   -0.0000 O   0  0  0  0  0  0  0  0  0  0  0  0
    0.9928   -5.2478   -0.0000 O   0  0  0  0  0  0  0  0  0  0  0  0
    5.3423    4.3377   -0.0000 C   0  0  0  0  0  0  0  0  0  0  0  0
    2.7421    4.4559   -0.0000 C   0  0  0  0  0  0  0  0  0  0  0  0
    6.5952    3.5340   -0.0000 O   0  0  0  0  0  0  0  0  0  0  0  0
    5.4014    5.8506   -0.0000 C   0  0  0  0  0  0  0  0  0  0  0  0
    2.7894    5.9688   -0.0000 C   0  0  0  0  0  0  0  0  0  0  0  0
    4.1249    6.6779   -0.0000 C   0  0  0  0  0  0  0  0  0  0  0  0
    1.5129    6.7843   -0.0000 Cl  0  0  0  0  0  0  0  0  0  0  0  0
  1  2  1  0  0  0  0
  2  3  2  0  0  0  0
  2  4  1  0  0  0  0
  3  5  1  0  0  0  0
  3  6  1  0  0  0  0
  4  7  2  0  0  0  0
  5  8  1  0  0  0  0
  6  9  2  0  0  0  0
  7 10  1  0  0  0  0
  8 11  2  0  0  0  0
  8 12  1  0  0  0  0
 10 13  2  0  0  0  0
 10 14  1  0  0  0  0
 12 15  2  0  0  0  0
 12 16  1  0  0  0  0
 15 17  1  0  0  0  0
 15 18  1  0  0  0  0
 16 19  2  0  0  0  0
 18 20  2  0  0  0  0
 19 21  1  0  0  0  0
  7  9  1  0  0  0  0
 19 20  1  0  0  0  0
M  CHG  2  10   1  14  -1
M  END
>  <MolRegNo>
378218

>  <m>
=

>  <Value>
25

>  <Unit>
%

>  <Type>
Inhibition

>  <Ligand Efficiency>


>  <Binding Efficiency>


>  <Surface Efficiency>


>  <Assay Index>
294024

>  <Assay Category>


>  <Assay Organism>
SARS coronavirus

>  <Target ID>
100499

>  <Target Name>
SARS coronavirus

>  <Target Organism>
SARS coronavirus

>  <Target Description>
Target is a complete organism

>  <Sequence Accession>


>  <Reference>
J. Med. Chem. 50 (17), 4087-4095 (2007)

>  <Pubmed ID>
17663539

>  <DOI>
10.1021/jm070295s

>  <InChI-Key>
RJMUSRYZPJIFPJ-UHFFFAOYSA-N

>  <Molecular Formula>
C13H8N2O4Cl2

>  <Monoisotopic Mass>
325.986112

>  <Druglikeness>
-4.3463

$$$$
Compound 472
Actelion Java MolfileCreator 1.0

 21 22  0  0  0  0  0  0  0  0999 V2000
    0.0000   -0.0000   -0.0000 Cl  0  0  0  0  0  0  0  0  0  0  0  0
    1.2528   -0.7919   -0.0000 C   0  0  0  0  0  0  0  0  0  0  0  0
    2.5766   -0.0827   -0.0000 C   0  0  0  0  0  0  0  0  0  0  0  0
    1.1701   -2.2811   -0.0000 C   0  0  0  0  0  0  0  0  0  0  0  0
    2.6357    1.4301   -0.0000 N   0  0  0  0  0  0  0  0  0  0  0  0
    3.8295   -0.8746   -0.0000 C   0  0  0  0  0  0  0  0  0  0  0  0
    2.4230   -3.0730   -0.0000 C   0  0  0  0  0  0  0  0  0  0  0  0
    3.9595    2.1275   -0.0000 C   0  0  0  0  0  0  0  0  0  0  0  0
    3.7467   -2.3639   -0.0000 C   0  0  0  0  0  0  0  0  0  0  0  0
    2.3402   -4.5623   -0.0000 N   0  0  0  0  0  0  0  0  0  0  0  0
    5.2123    1.3356   -0.0000 O   0  0  0  0  0  0  0  0  0  0  0  0
    4.0186    3.6404   -0.0000 C   0  0  0  0  0  0  0  0  0  0  0  0
    3.5931   -5.3542   -0.0000 O   0  0  0  0  0  0  0  0  0  0  0  0
    0.9928   -5.2478   -0.0000 O   0  0  0  0  0  0  0  0  0  0  0  0
    5.3423    4.3377   -0.0000 C   0  0  0  0  0  0  0  0  0  0  0  0
    2.7421    4.4559   -0.0000 C   0  0  0  0  0  0  0  0  0  0  0  0
    6.5952    3.5340   -0.0000 O   0  0  0  0  0  0  0  0  0  0  0  0
    5.4014    5.8506   -0.0000 C   0  0  0  0  0  0  0  0  0  0  0  0
    2.7894    5.9688   -0.0000 C   0  0  0  0  0  0  0  0  0  0  0  0
    4.1249    6.6779   -0.0000 C   0  0  0  0  0  0  0  0  0  0  0  0
    1.5129    6.7843   -0.0000 Cl  0  0  0  0  0  0  0  0  0  0  0  0
  1  2  1  0  0  0  0
  2  3  2  0  0  0  0
  2  4  1  0  0  0  0
  3  5  1  0  0  0  0
  3  6  1  0  0  0  0
  4  7  2  0  0  0  0
  5  8  1  0  0  0  0
  6  9  2  0  0  0  0
  7 10  1  0  0  0  0
  8 11  2  0  0  0  0
  8 12  1  0  0  0  0
 10 13  2  0  0  0  0
 10 14  1  0  0  0  0
 12 15  2  0  0  0  0
 12 16  1  0  0  0  0
 15 17  1  0  0  0  0
 15 18  1  0  0  0  0
 16 19  2  0  0  0  0
 18 20  2  0  0  0  0
 19 21  1  0  0  0  0
  7  9  1  0  0  0  0
 19 20  1  0  0  0  0
M  CHG  2  10   1  14  -1
M  END
>  <MolRegNo>
378218

>  <m>
=

>  <Value>
25

>  <Unit>
%

>  <Type>
Inhibition

>  <Ligand Efficiency>


>  <Binding Efficiency>


>  <Surface Efficiency>


>  <Assay Index>
294023

>  <Assay Category>


>  <Assay Organism>
SARS coronavirus

>  <Target ID>
100499

>  <Target Name>
SARS coronavirus

>  <Target Organism>
SARS coronavirus

>  <Target Description>
Target is a complete organism

>  <Sequence Accession>


>  <Reference>
J. Med. Chem. 50 (17), 4087-4095 (2007)

>  <Pubmed ID>
17663539

>  <DOI>
10.1021/jm070295s

>  <InChI-Key>
RJMUSRYZPJIFPJ-UHFFFAOYSA-N

>  <Molecular Formula>
C13H8N2O4Cl2

>  <Monoisotopic Mass>
325.986112

>  <Druglikeness>
-4.3463

$$$$
Compound 473
Actelion Java MolfileCreator 1.0

 14 15  0  0  0  0  0  0  0  0999 V2000
    0.0000   -0.0000   -0.0000 S   0  0  0  0  0  0  0  0  0  0  0  0
    1.3547    0.6298   -0.0000 C   0  0  0  0  0  0  0  0  0  0  0  0
   -1.0220    1.1289   -0.0000 C   0  0  0  0  0  0  0  0  0  0  0  0
    2.6500   -0.1069   -0.0000 C   0  0  0  0  0  0  0  0  0  0  0  0
    1.1883    2.1390   -0.0000 C   0  0  0  0  0  0  0  0  0  0  0  0
   -0.2852    2.4480   -0.0000 C   0  0  0  0  0  0  0  0  0  0  0  0
    2.6381   -1.6042   -0.0000 O   0  0  0  0  0  0  0  0  0  0  0  0
    3.9453    0.6536   -0.0000 N   0  0  0  0  0  0  0  0  0  0  0  0
    5.2405   -0.0832   -0.0000 C   0  0  0  0  0  0  0  0  0  0  0  0
    5.2286   -1.5805   -0.0000 C   0  0  0  0  0  0  0  0  0  0  0  0
    6.5239    0.6773   -0.0000 C   0  0  0  0  0  0  0  0  0  0  0  0
    6.5239   -2.3172   -0.0000 C   0  0  0  0  0  0  0  0  0  0  0  0
    7.8192   -0.0594   -0.0000 C   0  0  0  0  0  0  0  0  0  0  0  0
    7.8192   -1.5567   -0.0000 N   0  0  0  0  0  0  0  0  0  0  0  0
  1  2  1  0  0  0  0
  1  3  1  0  0  0  0
  2  4  1  0  0  0  0
  2  5  2  0  0  0  0
  3  6  2  0  0  0  0
  4  7  2  0  0  0  0
  4  8  1  0  0  0  0
  8  9  1  0  0  0  0
  9 10  2  0  0  0  0
  9 11  1  0  0  0  0
 10 12  1  0  0  0  0
 11 13  2  0  0  0  0
 12 14  2  0  0  0  0
  5  6  1  0  0  0  0
 13 14  1  0  0  0  0
M  END
>  <MolRegNo>
371797

>  <m>
<

>  <Value>
10

>  <Unit>
%

>  <Type>
Inhibition

>  <Ligand Efficiency>


>  <Binding Efficiency>


>  <Surface Efficiency>


>  <Assay Index>
278390

>  <Assay Category>


>  <Assay Organism>
SARS coronavirus

>  <Target ID>
20012

>  <Target Name>
SARS coronavirus 3C-like proteinase

>  <Target Organism>
SARS coronavirus

>  <Target Description>
Target is a single protein chain

>  <Sequence Accession>
P0C6U8

>  <Reference>
J. Med. Chem. 50 (8), 1850-1864 (2007)

>  <Pubmed ID>
17381079

>  <DOI>
10.1021/jm061425k

>  <InChI-Key>
RKADCAQUGVEIJY-UHFFFAOYSA-N

>  <Molecular Formula>
C10H8N2OS

>  <Monoisotopic Mass>
204.035733

>  <Druglikeness>
3.2828

$$$$
Compound 474
Actelion Java MolfileCreator 1.0

 31 31  0  0  1  0  0  0  0  0999 V2000
    0.0000   -0.0000   -0.0000 F   0  0  0  0  0  0  0  0  0  0  0  0
   -1.3044    0.7589   -0.0000 C   0  0  0  0  0  0  0  0  0  0  0  0
   -2.6087    0.0237   -0.0000 C   0  0  0  0  0  0  0  0  0  0  0  0
   -2.6206   -1.4585   -0.0000 O   0  0  0  0  0  0  0  0  0  0  0  0
   -3.9131    0.7826   -0.0000 C   0  0  0  0  0  0  0  0  0  0  0  0
   -5.2175    0.0474   -0.0000 N   0  0  0  0  0  0  0  0  0  0  0  0
   -3.9249    2.2886   -0.0000 C   0  0  0  0  0  0  0  0  0  0  0  0
   -6.5218    0.8063   -0.0000 C   0  0  0  0  0  0  0  0  0  0  0  0
   -2.6443    3.0475   -0.0000 C   0  0  0  0  0  0  0  0  0  0  0  0
   -6.5337    2.3123   -0.0000 O   0  0  0  0  0  0  0  0  0  0  0  0
   -7.8262    0.0711   -0.0000 C   0  0  0  0  0  0  0  0  0  0  0  0
   -2.6562    4.5534   -0.0000 C   0  0  0  0  0  0  0  0  0  0  0  0
   -9.1305    0.8300   -0.0000 N   0  0  0  0  0  0  0  0  0  0  0  0
   -7.8380   -1.4111   -0.0000 C   0  0  0  0  0  0  0  0  0  0  0  0
   -3.9605    5.3123   -0.0000 O   0  0  0  0  0  0  0  0  0  0  0  0
   -1.3755    5.3123   -0.0000 N   0  0  0  0  0  0  0  0  0  0  0  0
  -10.4349    0.0949   -0.0000 C   0  0  0  0  0  0  0  0  0  0  0  0
   -6.5574   -2.1463   -0.0000 C   0  0  0  0  0  0  0  0  0  0  0  0
   -9.1424   -2.1463   -0.0000 C   0  0  0  0  0  0  0  0  0  0  0  0
   -0.0949    4.5771   -0.0000 C   0  0  0  0  0  0  0  0  0  0  0  0
   -1.3874    6.8183   -0.0000 C   0  0  0  0  0  0  0  0  0  0  0  0
  -10.4468   -1.3874   -0.0000 O   0  0  0  0  0  0  0  0  0  0  0  0
  -11.7393    0.8538   -0.0000 O   0  0  0  0  0  0  0  0  0  0  0  0
   -6.5693   -3.6285   -0.0000 C   0  0  0  0  0  0  0  0  0  0  0  0
  -13.0436    0.1186   -0.0000 C   0  0  0  0  0  0  0  0  0  0  0  0
  -14.3480    0.8775   -0.0000 C   0  0  0  0  0  0  0  0  0  0  0  0
  -15.6642    0.1423   -0.0000 C   0  0  0  0  0  0  0  0  0  0  0  0
  -14.3599    2.3953   -0.0000 C   0  0  0  0  0  0  0  0  0  0  0  0
  -16.9686    0.9012   -0.0000 C   0  0  0  0  0  0  0  0  0  0  0  0
  -15.6642    3.1542   -0.0000 C   0  0  0  0  0  0  0  0  0  0  0  0
  -16.9804    2.4190   -0.0000 C   0  0  0  0  0  0  0  0  0  0  0  0
  1  2  1  0  0  0  0
  2  3  1  0  0  0  0
  3  4  2  0  0  0  0
  3  5  1  0  0  0  0
  5  6  1  0  0  0  0
  5  7  1  0  0  0  0
  6  8  1  0  0  0  0
  7  9  1  0  0  0  0
  8 10  2  0  0  0  0
  8 11  1  0  0  0  0
  9 12  1  0  0  0  0
 11 13  1  6  0  0  0
 11 14  1  0  0  0  0
 12 15  2  0  0  0  0
 12 16  1  0  0  0  0
 13 17  1  0  0  0  0
 14 18  1  0  0  0  0
 14 19  1  0  0  0  0
 16 20  1  0  0  0  0
 16 21  1  0  0  0  0
 17 22  2  0  0  0  0
 17 23  1  0  0  0  0
 18 24  1  0  0  0  0
 23 25  1  0  0  0  0
 25 26  1  0  0  0  0
 26 27  2  0  0  0  0
 26 28  1  0  0  0  0
 27 29  1  0  0  0  0
 28 30  2  0  0  0  0
 29 31  2  0  0  0  0
 30 31  1  0  0  0  0
M  END
>  <MolRegNo>
338463

>  <m>
=

>  <Value>
8900

>  <Unit>
nM

>  <Type>
EC50

>  <Ligand Efficiency>


>  <Binding Efficiency>


>  <Surface Efficiency>


>  <Assay Index>
256674

>  <Assay Category>


>  <Assay Organism>
SARS coronavirus

>  <Target ID>
100499

>  <Target Name>
SARS coronavirus

>  <Target Organism>
SARS coronavirus

>  <Target Description>
Target is a complete organism

>  <Sequence Accession>


>  <Reference>
J. Med. Chem. 49 (3), 1198-1201 (2006)

>  <Pubmed ID>
16451084

>  <DOI>
10.1021/jm0507678

>  <InChI-Key>
RKGZUGUTFRGBHD-LAGYLCCXSA-N

>  <Molecular Formula>
C22H32N3O5F

>  <Monoisotopic Mass>
437.232600

>  <Druglikeness>
-11.823

$$$$
Compound 475
Actelion Java MolfileCreator 1.0

 31 31  0  0  1  0  0  0  0  0999 V2000
    0.0000   -0.0000   -0.0000 F   0  0  0  0  0  0  0  0  0  0  0  0
   -1.3044    0.7589   -0.0000 C   0  0  0  0  0  0  0  0  0  0  0  0
   -2.6087    0.0237   -0.0000 C   0  0  0  0  0  0  0  0  0  0  0  0
   -2.6206   -1.4585   -0.0000 O   0  0  0  0  0  0  0  0  0  0  0  0
   -3.9131    0.7826   -0.0000 C   0  0  0  0  0  0  0  0  0  0  0  0
   -5.2175    0.0474   -0.0000 N   0  0  0  0  0  0  0  0  0  0  0  0
   -3.9249    2.2886   -0.0000 C   0  0  0  0  0  0  0  0  0  0  0  0
   -6.5218    0.8063   -0.0000 C   0  0  0  0  0  0  0  0  0  0  0  0
   -2.6443    3.0475   -0.0000 C   0  0  0  0  0  0  0  0  0  0  0  0
   -6.5337    2.3123   -0.0000 O   0  0  0  0  0  0  0  0  0  0  0  0
   -7.8262    0.0711   -0.0000 C   0  0  0  0  0  0  0  0  0  0  0  0
   -2.6562    4.5534   -0.0000 C   0  0  0  0  0  0  0  0  0  0  0  0
   -9.1305    0.8300   -0.0000 N   0  0  0  0  0  0  0  0  0  0  0  0
   -7.8380   -1.4111   -0.0000 C   0  0  0  0  0  0  0  0  0  0  0  0
   -3.9605    5.3123   -0.0000 O   0  0  0  0  0  0  0  0  0  0  0  0
   -1.3755    5.3123   -0.0000 N   0  0  0  0  0  0  0  0  0  0  0  0
  -10.4349    0.0949   -0.0000 C   0  0  0  0  0  0  0  0  0  0  0  0
   -6.5574   -2.1463   -0.0000 C   0  0  0  0  0  0  0  0  0  0  0  0
   -9.1424   -2.1463   -0.0000 C   0  0  0  0  0  0  0  0  0  0  0  0
   -0.0949    4.5771   -0.0000 C   0  0  0  0  0  0  0  0  0  0  0  0
   -1.3874    6.8183   -0.0000 C   0  0  0  0  0  0  0  0  0  0  0  0
  -10.4468   -1.3874   -0.0000 O   0  0  0  0  0  0  0  0  0  0  0  0
  -11.7393    0.8538   -0.0000 O   0  0  0  0  0  0  0  0  0  0  0  0
   -6.5693   -3.6285   -0.0000 C   0  0  0  0  0  0  0  0  0  0  0  0
  -13.0436    0.1186   -0.0000 C   0  0  0  0  0  0  0  0  0  0  0  0
  -14.3480    0.8775   -0.0000 C   0  0  0  0  0  0  0  0  0  0  0  0
  -15.6642    0.1423   -0.0000 C   0  0  0  0  0  0  0  0  0  0  0  0
  -14.3599    2.3953   -0.0000 C   0  0  0  0  0  0  0  0  0  0  0  0
  -16.9686    0.9012   -0.0000 C   0  0  0  0  0  0  0  0  0  0  0  0
  -15.6642    3.1542   -0.0000 C   0  0  0  0  0  0  0  0  0  0  0  0
  -16.9804    2.4190   -0.0000 C   0  0  0  0  0  0  0  0  0  0  0  0
  1  2  1  0  0  0  0
  2  3  1  0  0  0  0
  3  4  2  0  0  0  0
  3  5  1  0  0  0  0
  5  6  1  0  0  0  0
  5  7  1  0  0  0  0
  6  8  1  0  0  0  0
  7  9  1  0  0  0  0
  8 10  2  0  0  0  0
  8 11  1  0  0  0  0
  9 12  1  0  0  0  0
 11 13  1  6  0  0  0
 11 14  1  0  0  0  0
 12 15  2  0  0  0  0
 12 16  1  0  0  0  0
 13 17  1  0  0  0  0
 14 18  1  0  0  0  0
 14 19  1  0  0  0  0
 16 20  1  0  0  0  0
 16 21  1  0  0  0  0
 17 22  2  0  0  0  0
 17 23  1  0  0  0  0
 18 24  1  0  0  0  0
 23 25  1  0  0  0  0
 25 26  1  0  0  0  0
 26 27  2  0  0  0  0
 26 28  1  0  0  0  0
 27 29  1  0  0  0  0
 28 30  2  0  0  0  0
 29 31  2  0  0  0  0
 30 31  1  0  0  0  0
M  END
>  <MolRegNo>
338463

>  <m>
=

>  <Value>
8800

>  <Unit>
nM

>  <Type>
EC50

>  <Ligand Efficiency>


>  <Binding Efficiency>


>  <Surface Efficiency>


>  <Assay Index>
256676

>  <Assay Category>


>  <Assay Organism>
SARS coronavirus

>  <Target ID>
100499

>  <Target Name>
SARS coronavirus

>  <Target Organism>
SARS coronavirus

>  <Target Description>
Target is a complete organism

>  <Sequence Accession>


>  <Reference>
J. Med. Chem. 49 (3), 1198-1201 (2006)

>  <Pubmed ID>
16451084

>  <DOI>
10.1021/jm0507678

>  <InChI-Key>
RKGZUGUTFRGBHD-LAGYLCCXSA-N

>  <Molecular Formula>
C22H32N3O5F

>  <Monoisotopic Mass>
437.232600

>  <Druglikeness>
-11.823

$$$$
Compound 476
Actelion Java MolfileCreator 1.0

 31 31  0  0  1  0  0  0  0  0999 V2000
    0.0000   -0.0000   -0.0000 F   0  0  0  0  0  0  0  0  0  0  0  0
   -1.3044    0.7589   -0.0000 C   0  0  0  0  0  0  0  0  0  0  0  0
   -2.6087    0.0237   -0.0000 C   0  0  0  0  0  0  0  0  0  0  0  0
   -2.6206   -1.4585   -0.0000 O   0  0  0  0  0  0  0  0  0  0  0  0
   -3.9131    0.7826   -0.0000 C   0  0  0  0  0  0  0  0  0  0  0  0
   -5.2175    0.0474   -0.0000 N   0  0  0  0  0  0  0  0  0  0  0  0
   -3.9249    2.2886   -0.0000 C   0  0  0  0  0  0  0  0  0  0  0  0
   -6.5218    0.8063   -0.0000 C   0  0  0  0  0  0  0  0  0  0  0  0
   -2.6443    3.0475   -0.0000 C   0  0  0  0  0  0  0  0  0  0  0  0
   -6.5337    2.3123   -0.0000 O   0  0  0  0  0  0  0  0  0  0  0  0
   -7.8262    0.0711   -0.0000 C   0  0  0  0  0  0  0  0  0  0  0  0
   -2.6562    4.5534   -0.0000 C   0  0  0  0  0  0  0  0  0  0  0  0
   -9.1305    0.8300   -0.0000 N   0  0  0  0  0  0  0  0  0  0  0  0
   -7.8380   -1.4111   -0.0000 C   0  0  0  0  0  0  0  0  0  0  0  0
   -3.9605    5.3123   -0.0000 O   0  0  0  0  0  0  0  0  0  0  0  0
   -1.3755    5.3123   -0.0000 N   0  0  0  0  0  0  0  0  0  0  0  0
  -10.4349    0.0949   -0.0000 C   0  0  0  0  0  0  0  0  0  0  0  0
   -6.5574   -2.1463   -0.0000 C   0  0  0  0  0  0  0  0  0  0  0  0
   -9.1424   -2.1463   -0.0000 C   0  0  0  0  0  0  0  0  0  0  0  0
   -0.0949    4.5771   -0.0000 C   0  0  0  0  0  0  0  0  0  0  0  0
   -1.3874    6.8183   -0.0000 C   0  0  0  0  0  0  0  0  0  0  0  0
  -10.4468   -1.3874   -0.0000 O   0  0  0  0  0  0  0  0  0  0  0  0
  -11.7393    0.8538   -0.0000 O   0  0  0  0  0  0  0  0  0  0  0  0
   -6.5693   -3.6285   -0.0000 C   0  0  0  0  0  0  0  0  0  0  0  0
  -13.0436    0.1186   -0.0000 C   0  0  0  0  0  0  0  0  0  0  0  0
  -14.3480    0.8775   -0.0000 C   0  0  0  0  0  0  0  0  0  0  0  0
  -15.6642    0.1423   -0.0000 C   0  0  0  0  0  0  0  0  0  0  0  0
  -14.3599    2.3953   -0.0000 C   0  0  0  0  0  0  0  0  0  0  0  0
  -16.9686    0.9012   -0.0000 C   0  0  0  0  0  0  0  0  0  0  0  0
  -15.6642    3.1542   -0.0000 C   0  0  0  0  0  0  0  0  0  0  0  0
  -16.9804    2.4190   -0.0000 C   0  0  0  0  0  0  0  0  0  0  0  0
  1  2  1  0  0  0  0
  2  3  1  0  0  0  0
  3  4  2  0  0  0  0
  3  5  1  0  0  0  0
  5  6  1  0  0  0  0
  5  7  1  0  0  0  0
  6  8  1  0  0  0  0
  7  9  1  0  0  0  0
  8 10  2  0  0  0  0
  8 11  1  0  0  0  0
  9 12  1  0  0  0  0
 11 13  1  6  0  0  0
 11 14  1  0  0  0  0
 12 15  2  0  0  0  0
 12 16  1  0  0  0  0
 13 17  1  0  0  0  0
 14 18  1  0  0  0  0
 14 19  1  0  0  0  0
 16 20  1  0  0  0  0
 16 21  1  0  0  0  0
 17 22  2  0  0  0  0
 17 23  1  0  0  0  0
 18 24  1  0  0  0  0
 23 25  1  0  0  0  0
 25 26  1  0  0  0  0
 26 27  2  0  0  0  0
 26 28  1  0  0  0  0
 27 29  1  0  0  0  0
 28 30  2  0  0  0  0
 29 31  2  0  0  0  0
 30 31  1  0  0  0  0
M  END
>  <MolRegNo>
338463

>  <m>
=

>  <Value>
5300

>  <Unit>
nM

>  <Type>
EC50

>  <Ligand Efficiency>


>  <Binding Efficiency>


>  <Surface Efficiency>


>  <Assay Index>
256675

>  <Assay Category>


>  <Assay Organism>
SARS coronavirus

>  <Target ID>
100499

>  <Target Name>
SARS coronavirus

>  <Target Organism>
SARS coronavirus

>  <Target Description>
Target is a complete organism

>  <Sequence Accession>


>  <Reference>
J. Med. Chem. 49 (3), 1198-1201 (2006)

>  <Pubmed ID>
16451084

>  <DOI>
10.1021/jm0507678

>  <InChI-Key>
RKGZUGUTFRGBHD-LAGYLCCXSA-N

>  <Molecular Formula>
C22H32N3O5F

>  <Monoisotopic Mass>
437.232600

>  <Druglikeness>
-11.823

$$$$
Compound 477
Actelion Java MolfileCreator 1.0

 31 35  0  0  0  0  0  0  0  0999 V2000
    0.0000   -0.0000   -0.0000 Cl  0  0  0  0  0  0  0  0  0  0  0  0
   -1.3125   -0.7331   -0.0000 C   0  0  0  0  0  0  0  0  0  0  0  0
   -1.3243   -2.2230   -0.0000 C   0  0  0  0  0  0  0  0  0  0  0  0
   -2.6250    0.0236   -0.0000 C   0  0  0  0  0  0  0  0  0  0  0  0
   -2.6368   -2.9561   -0.0000 C   0  0  0  0  0  0  0  0  0  0  0  0
   -3.9375   -0.7095   -0.0000 C   0  0  0  0  0  0  0  0  0  0  0  0
   -3.9493   -2.1993   -0.0000 C   0  0  0  0  0  0  0  0  0  0  0  0
   -2.6486   -4.4459   -0.0000 C   0  0  0  0  0  0  0  0  0  0  0  0
   -3.9611   -5.1790   -0.0000 O   0  0  0  0  0  0  0  0  0  0  0  0
   -3.9729   -6.6689   -0.0000 C   0  0  0  0  0  0  0  0  0  0  0  0
   -5.2854   -7.4020   -0.0000 C   0  0  0  0  0  0  0  0  0  0  0  0
   -2.6841   -7.4020   -0.0000 C   0  0  0  0  0  0  0  0  0  0  0  0
   -5.2973   -8.8918   -0.0000 C   0  0  0  0  0  0  0  0  0  0  0  0
   -2.6959   -8.8918   -0.0000 C   0  0  0  0  0  0  0  0  0  0  0  0
   -6.6098   -9.6368   -0.0000 O   0  0  0  0  0  0  0  0  0  0  0  0
   -4.0084   -9.6368   -0.0000 C   0  0  0  0  0  0  0  0  0  0  0  0
   -1.4071   -9.6368   -0.0000 O   0  0  0  0  0  0  0  0  0  0  0  0
   -6.6216  -11.1266   -0.0000 C   0  0  0  0  0  0  0  0  0  0  0  0
   -4.0202  -11.1266   -0.0000 C   0  0  0  0  0  0  0  0  0  0  0  0
   -5.3327  -11.8715   -0.0000 C   0  0  0  0  0  0  0  0  0  0  0  0
   -7.9341  -11.8715   -0.0000 C   0  0  0  0  0  0  0  0  0  0  0  0
   -2.7314  -11.8715   -0.0000 O   0  0  0  0  0  0  0  0  0  0  0  0
   -5.3446  -13.3614   -0.0000 O   0  0  0  0  0  0  0  0  0  0  0  0
   -9.2466  -11.1030   -0.0000 C   0  0  0  0  0  0  0  0  0  0  0  0
   -7.9459  -13.3614   -0.0000 C   0  0  0  0  0  0  0  0  0  0  0  0
  -10.5591  -11.8479   -0.0000 C   0  0  0  0  0  0  0  0  0  0  0  0
   -9.2584  -14.1063   -0.0000 C   0  0  0  0  0  0  0  0  0  0  0  0
  -12.0016  -11.3749   -0.0000 O   0  0  0  0  0  0  0  0  0  0  0  0
  -10.5709  -13.3377   -0.0000 C   0  0  0  0  0  0  0  0  0  0  0  0
  -12.9003  -12.5810   -0.0000 C   0  0  0  0  0  0  0  0  0  0  0  0
  -12.0134  -13.7871   -0.0000 O   0  0  0  0  0  0  0  0  0  0  0  0
  1  2  1  0  0  0  0
  2  3  2  0  0  0  0
  2  4  1  0  0  0  0
  3  5  1  0  0  0  0
  4  6  2  0  0  0  0
  5  7  2  0  0  0  0
  5  8  1  0  0  0  0
  8  9  1  0  0  0  0
  9 10  1  0  0  0  0
 10 11  2  0  0  0  0
 10 12  1  0  0  0  0
 11 13  1  0  0  0  0
 12 14  2  0  0  0  0
 13 15  1  0  0  0  0
 13 16  2  0  0  0  0
 14 17  1  0  0  0  0
 15 18  1  0  0  0  0
 16 19  1  0  0  0  0
 18 20  2  0  0  0  0
 18 21  1  0  0  0  0
 19 22  2  0  0  0  0
 20 23  1  0  0  0  0
 21 24  2  0  0  0  0
 21 25  1  0  0  0  0
 24 26  1  0  0  0  0
 25 27  2  0  0  0  0
 26 28  1  0  0  0  0
 26 29  2  0  0  0  0
 28 30  1  0  0  0  0
 29 31  1  0  0  0  0
  6  7  1  0  0  0  0
 14 16  1  0  0  0  0
 19 20  1  0  0  0  0
 27 29  1  0  0  0  0
 30 31  1  0  0  0  0
M  END
>  <MolRegNo>
557244

>  <m>
>

>  <Value>
50000

>  <Unit>
nM

>  <Type>
IC50

>  <Ligand Efficiency>


>  <Binding Efficiency>


>  <Surface Efficiency>


>  <Assay Index>
426933

>  <Assay Category>


>  <Assay Organism>
SARS coronavirus

>  <Target ID>
101075

>  <Target Name>
Replicase polyprotein 1ab

>  <Target Organism>
SARS coronavirus

>  <Target Description>
Target is a single protein chain

>  <Sequence Accession>
P0C6X7

>  <Reference>
Bioorg. Med. Chem. Lett. 19 (16), 4538-4541 (2009)

>  <Pubmed ID>
19625187

>  <DOI>
10.1016/j.bmcl.2009.07.009

>  <InChI-Key>
RLDACGCZSLOROC-UHFFFAOYSA-N

>  <Molecular Formula>
C23H15O7Cl

>  <Monoisotopic Mass>
438.050632

>  <Druglikeness>
-0.12001

$$$$
Compound 478
Actelion Java MolfileCreator 1.0

 31 35  0  0  0  0  0  0  0  0999 V2000
    0.0000   -0.0000   -0.0000 Cl  0  0  0  0  0  0  0  0  0  0  0  0
   -1.3125   -0.7331   -0.0000 C   0  0  0  0  0  0  0  0  0  0  0  0
   -1.3243   -2.2230   -0.0000 C   0  0  0  0  0  0  0  0  0  0  0  0
   -2.6250    0.0236   -0.0000 C   0  0  0  0  0  0  0  0  0  0  0  0
   -2.6368   -2.9561   -0.0000 C   0  0  0  0  0  0  0  0  0  0  0  0
   -3.9375   -0.7095   -0.0000 C   0  0  0  0  0  0  0  0  0  0  0  0
   -3.9493   -2.1993   -0.0000 C   0  0  0  0  0  0  0  0  0  0  0  0
   -2.6486   -4.4459   -0.0000 C   0  0  0  0  0  0  0  0  0  0  0  0
   -3.9611   -5.1790   -0.0000 O   0  0  0  0  0  0  0  0  0  0  0  0
   -3.9729   -6.6689   -0.0000 C   0  0  0  0  0  0  0  0  0  0  0  0
   -5.2854   -7.4020   -0.0000 C   0  0  0  0  0  0  0  0  0  0  0  0
   -2.6841   -7.4020   -0.0000 C   0  0  0  0  0  0  0  0  0  0  0  0
   -5.2973   -8.8918   -0.0000 C   0  0  0  0  0  0  0  0  0  0  0  0
   -2.6959   -8.8918   -0.0000 C   0  0  0  0  0  0  0  0  0  0  0  0
   -6.6098   -9.6368   -0.0000 O   0  0  0  0  0  0  0  0  0  0  0  0
   -4.0084   -9.6368   -0.0000 C   0  0  0  0  0  0  0  0  0  0  0  0
   -1.4071   -9.6368   -0.0000 O   0  0  0  0  0  0  0  0  0  0  0  0
   -6.6216  -11.1266   -0.0000 C   0  0  0  0  0  0  0  0  0  0  0  0
   -4.0202  -11.1266   -0.0000 C   0  0  0  0  0  0  0  0  0  0  0  0
   -5.3327  -11.8715   -0.0000 C   0  0  0  0  0  0  0  0  0  0  0  0
   -7.9341  -11.8715   -0.0000 C   0  0  0  0  0  0  0  0  0  0  0  0
   -2.7314  -11.8715   -0.0000 O   0  0  0  0  0  0  0  0  0  0  0  0
   -5.3446  -13.3614   -0.0000 O   0  0  0  0  0  0  0  0  0  0  0  0
   -9.2466  -11.1030   -0.0000 C   0  0  0  0  0  0  0  0  0  0  0  0
   -7.9459  -13.3614   -0.0000 C   0  0  0  0  0  0  0  0  0  0  0  0
  -10.5591  -11.8479   -0.0000 C   0  0  0  0  0  0  0  0  0  0  0  0
   -9.2584  -14.1063   -0.0000 C   0  0  0  0  0  0  0  0  0  0  0  0
  -12.0016  -11.3749   -0.0000 O   0  0  0  0  0  0  0  0  0  0  0  0
  -10.5709  -13.3377   -0.0000 C   0  0  0  0  0  0  0  0  0  0  0  0
  -12.9003  -12.5810   -0.0000 C   0  0  0  0  0  0  0  0  0  0  0  0
  -12.0134  -13.7871   -0.0000 O   0  0  0  0  0  0  0  0  0  0  0  0
  1  2  1  0  0  0  0
  2  3  2  0  0  0  0
  2  4  1  0  0  0  0
  3  5  1  0  0  0  0
  4  6  2  0  0  0  0
  5  7  2  0  0  0  0
  5  8  1  0  0  0  0
  8  9  1  0  0  0  0
  9 10  1  0  0  0  0
 10 11  2  0  0  0  0
 10 12  1  0  0  0  0
 11 13  1  0  0  0  0
 12 14  2  0  0  0  0
 13 15  1  0  0  0  0
 13 16  2  0  0  0  0
 14 17  1  0  0  0  0
 15 18  1  0  0  0  0
 16 19  1  0  0  0  0
 18 20  2  0  0  0  0
 18 21  1  0  0  0  0
 19 22  2  0  0  0  0
 20 23  1  0  0  0  0
 21 24  2  0  0  0  0
 21 25  1  0  0  0  0
 24 26  1  0  0  0  0
 25 27  2  0  0  0  0
 26 28  1  0  0  0  0
 26 29  2  0  0  0  0
 28 30  1  0  0  0  0
 29 31  1  0  0  0  0
  6  7  1  0  0  0  0
 14 16  1  0  0  0  0
 19 20  1  0  0  0  0
 27 29  1  0  0  0  0
 30 31  1  0  0  0  0
M  END
>  <MolRegNo>
557244

>  <m>
=

>  <Value>
15400

>  <Unit>
nM

>  <Type>
IC50

>  <Ligand Efficiency>
0.21

>  <Binding Efficiency>
10.97

>  <Surface Efficiency>
4.89

>  <Assay Index>
426934

>  <Assay Category>


>  <Assay Organism>
SARS coronavirus

>  <Target ID>
101075

>  <Target Name>
Replicase polyprotein 1ab

>  <Target Organism>
SARS coronavirus

>  <Target Description>
Target is a single protein chain

>  <Sequence Accession>
P0C6X7

>  <Reference>
Bioorg. Med. Chem. Lett. 19 (16), 4538-4541 (2009)

>  <Pubmed ID>
19625187

>  <DOI>
10.1016/j.bmcl.2009.07.009

>  <InChI-Key>
RLDACGCZSLOROC-UHFFFAOYSA-N

>  <Molecular Formula>
C23H15O7Cl

>  <Monoisotopic Mass>
438.050632

>  <Druglikeness>
-0.12001

$$$$
Compound 479
Actelion Java MolfileCreator 1.0

 32 35  0  0  0  0  0  0  0  0999 V2000
    0.0000   -0.0000   -0.0000 Cl  0  0  0  0  0  0  0  0  0  0  0  0
   -0.0123   -1.2471   -0.0000 C   0  0  0  0  0  0  0  0  0  0  0  0
   -1.3829   -2.0126   -0.0000 C   0  0  0  0  0  0  0  0  0  0  0  0
    1.3335   -2.0126   -0.0000 C   0  0  0  0  0  0  0  0  0  0  0  0
   -1.3952   -3.5683   -0.0000 C   0  0  0  0  0  0  0  0  0  0  0  0
    1.3211   -3.5683   -0.0000 C   0  0  0  0  0  0  0  0  0  0  0  0
   -0.0494   -4.3339   -0.0000 C   0  0  0  0  0  0  0  0  0  0  0  0
   -2.7658   -4.3339   -0.0000 C   0  0  0  0  0  0  0  0  0  0  0  0
   -0.0617   -5.8896   -0.0000 C   0  0  0  0  0  0  0  0  0  0  0  0
   -4.1857   -3.6795   -0.0000 O   0  0  0  0  0  0  0  0  0  0  0  0
   -2.9139   -5.8649   -0.0000 C   0  0  0  0  0  0  0  0  0  0  0  0
    1.0125   -6.5070   -0.0000 O   0  0  0  0  0  0  0  0  0  0  0  0
   -1.1606   -6.5070   -0.0000 O   0  0  0  0  0  0  0  0  0  0  0  0
   -5.2476   -4.8278   -0.0000 C   0  0  0  0  0  0  0  0  0  0  0  0
   -4.4573   -6.1859   -0.0000 C   0  0  0  0  0  0  0  0  0  0  0  0
   -6.8156   -4.6549   -0.0000 C   0  0  0  0  0  0  0  0  0  0  0  0
   -7.7417   -5.9143   -0.0000 C   0  0  0  0  0  0  0  0  0  0  0  0
   -7.2601   -7.3713   -0.0000 C   0  0  0  0  0  0  0  0  0  0  0  0
   -9.3098   -5.8896   -0.0000 C   0  0  0  0  0  0  0  0  0  0  0  0
   -6.0748   -7.7417   -0.0000 O   0  0  0  0  0  0  0  0  0  0  0  0
   -8.5443   -8.2850   -0.0000 N   0  0  0  0  0  0  0  0  0  0  0  0
   -9.8037   -7.3713   -0.0000 N   0  0  0  0  0  0  0  0  0  0  0  0
  -10.0506   -4.8648   -0.0000 C   0  0  0  0  0  0  0  0  0  0  0  0
   -8.5566   -9.8407   -0.0000 C   0  0  0  0  0  0  0  0  0  0  0  0
   -9.9889  -10.5075   -0.0000 C   0  0  0  0  0  0  0  0  0  0  0  0
   -7.2725  -10.7050   -0.0000 C   0  0  0  0  0  0  0  0  0  0  0  0
  -10.1123  -12.0632   -0.0000 C   0  0  0  0  0  0  0  0  0  0  0  0
   -7.3960  -12.2608   -0.0000 C   0  0  0  0  0  0  0  0  0  0  0  0
  -11.5446  -12.7300   -0.0000 C   0  0  0  0  0  0  0  0  0  0  0  0
   -8.8282  -12.9275   -0.0000 C   0  0  0  0  0  0  0  0  0  0  0  0
  -12.5941  -12.0138   -0.0000 O   0  0  0  0  0  0  0  0  0  0  0  0
  -11.6557  -13.9647   -0.0000 O   0  0  0  0  0  0  0  0  0  0  0  0
  1  2  1  0  0  0  0
  2  3  2  0  0  0  0
  2  4  1  0  0  0  0
  3  5  1  0  0  0  0
  4  6  2  0  0  0  0
  5  7  2  0  0  0  0
  5  8  1  0  0  0  0
  7  9  1  0  0  0  0
  8 10  1  0  0  0  0
  8 11  2  0  0  0  0
  9 12  2  0  0  0  0
  9 13  1  0  0  0  0
 10 14  1  0  0  0  0
 11 15  1  0  0  0  0
 14 16  1  0  0  0  0
 16 17  2  0  0  0  0
 17 18  1  0  0  0  0
 17 19  1  0  0  0  0
 18 20  2  0  0  0  0
 18 21  1  0  0  0  0
 19 22  2  0  0  0  0
 19 23  1  0  0  0  0
 21 24  1  0  0  0  0
 24 25  2  0  0  0  0
 24 26  1  0  0  0  0
 25 27  1  0  0  0  0
 26 28  2  0  0  0  0
 27 29  1  0  0  0  0
 27 30  2  0  0  0  0
 29 31  2  0  0  0  0
 29 32  1  0  0  0  0
  6  7  1  0  0  0  0
 14 15  2  0  0  0  0
 21 22  1  0  0  0  0
 28 30  1  0  0  0  0
M  END
>  <MolRegNo>
2087685

>  <m>
>

>  <Value>
50000

>  <Unit>
nM

>  <Type>
IC50

>  <Ligand Efficiency>


>  <Binding Efficiency>


>  <Surface Efficiency>


>  <Assay Index>
1017144

>  <Assay Category>


>  <Assay Organism>
SARS coronavirus

>  <Target ID>
101075

>  <Target Name>
Replicase polyprotein 1ab

>  <Target Organism>
SARS coronavirus

>  <Target Description>
Target is a single protein chain

>  <Sequence Accession>
P0C6X7

>  <Reference>
Bioorg. Med. Chem. 24 (13), 3035-3042 (2016)

>  <Pubmed ID>
27240464

>  <DOI>
10.1016/j.bmc.2016.05.013

>  <InChI-Key>
RMHAQSDBWLXMGQ-UHFFFAOYSA-N

>  <Molecular Formula>
C23H15N2O6Cl

>  <Monoisotopic Mass>
450.061865

>  <Druglikeness>
5.3377

$$$$
Compound 480
Actelion Java MolfileCreator 1.0

 14 15  0  0  0  0  0  0  0  0999 V2000
    0.0000   -0.0000   -0.0000 Cl  0  0  0  0  0  0  0  0  0  0  0  0
    1.4930    0.0711   -0.0000 C   0  0  0  0  0  0  0  0  0  0  0  0
    2.1803    1.4101   -0.0000 C   0  0  0  0  0  0  0  0  0  0  0  0
    2.2869   -1.1968   -0.0000 C   0  0  0  0  0  0  0  0  0  0  0  0
    3.6733    1.4812   -0.0000 C   0  0  0  0  0  0  0  0  0  0  0  0
    3.7799   -1.1257   -0.0000 C   0  0  0  0  0  0  0  0  0  0  0  0
    4.4553    0.2133   -0.0000 C   0  0  0  0  0  0  0  0  0  0  0  0
    5.9484    0.2844   -0.0000 C   0  0  0  0  0  0  0  0  0  0  0  0
    6.6712    1.6115   -0.0000 O   0  0  0  0  0  0  0  0  0  0  0  0
    6.9556   -0.8176   -0.0000 C   0  0  0  0  0  0  0  0  0  0  0  0
    8.1405    1.3271   -0.0000 C   0  0  0  0  0  0  0  0  0  0  0  0
    8.3064   -0.1777   -0.0000 C   0  0  0  0  0  0  0  0  0  0  0  0
    9.2425    2.3462   -0.0000 C   0  0  0  0  0  0  0  0  0  0  0  0
    8.8988    3.8273   -0.0000 O   0  0  0  0  0  0  0  0  0  0  0  0
  1  2  1  0  0  0  0
  2  3  2  0  0  0  0
  2  4  1  0  0  0  0
  3  5  1  0  0  0  0
  4  6  2  0  0  0  0
  5  7  2  0  0  0  0
  7  8  1  0  0  0  0
  8  9  1  0  0  0  0
  8 10  2  0  0  0  0
  9 11  1  0  0  0  0
 10 12  1  0  0  0  0
 11 13  1  0  0  0  0
 13 14  2  0  0  0  0
  6  7  1  0  0  0  0
 11 12  2  0  0  0  0
M  END
>  <MolRegNo>
371768

>  <m>
=

>  <Value>
70

>  <Unit>
%

>  <Type>
Inhibition

>  <Ligand Efficiency>


>  <Binding Efficiency>


>  <Surface Efficiency>


>  <Assay Index>
278390

>  <Assay Category>


>  <Assay Organism>
SARS coronavirus

>  <Target ID>
20012

>  <Target Name>
SARS coronavirus 3C-like proteinase

>  <Target Organism>
SARS coronavirus

>  <Target Description>
Target is a single protein chain

>  <Sequence Accession>
P0C6U8

>  <Reference>
J. Med. Chem. 50 (8), 1850-1864 (2007)

>  <Pubmed ID>
17381079

>  <DOI>
10.1021/jm061425k

>  <InChI-Key>
ROJGJNINTRCMBL-UHFFFAOYSA-N

>  <Molecular Formula>
C11H7O2Cl

>  <Monoisotopic Mass>
206.013457

>  <Druglikeness>
-1.5793

$$$$
Compound 481
Actelion Java MolfileCreator 1.0

 15 16  0  0  0  0  0  0  0  0999 V2000
    0.0000   -0.0000   -0.0000 O   0  0  0  0  0  0  0  0  0  0  0  0
   -1.5054    0.0353   -0.0000 C   0  0  0  0  0  0  0  0  0  0  0  0
   -2.3874   -1.1525   -0.0000 N   0  0  0  0  0  0  0  0  0  0  0  0
   -2.3874    1.2584   -0.0000 C   0  0  0  0  0  0  0  0  0  0  0  0
   -3.7987   -0.6821   -0.0000 C   0  0  0  0  0  0  0  0  0  0  0  0
   -1.9170   -2.5756   -0.0000 C   0  0  0  0  0  0  0  0  0  0  0  0
   -1.9170    2.7050   -0.0000 O   0  0  0  0  0  0  0  0  0  0  0  0
   -3.7987    0.7997   -0.0000 C   0  0  0  0  0  0  0  0  0  0  0  0
   -5.0924   -1.4230   -0.0000 C   0  0  0  0  0  0  0  0  0  0  0  0
   -5.0924    1.5524   -0.0000 C   0  0  0  0  0  0  0  0  0  0  0  0
   -6.4096   -0.6586   -0.0000 C   0  0  0  0  0  0  0  0  0  0  0  0
   -6.4096    0.8232   -0.0000 C   0  0  0  0  0  0  0  0  0  0  0  0
   -7.7620    1.5524   -0.0000 C   0  0  0  0  0  0  0  0  0  0  0  0
   -9.0439    0.7880   -0.0000 O   0  0  0  0  0  0  0  0  0  0  0  0
   -7.8208    3.0578   -0.0000 O   0  0  0  0  0  0  0  0  0  0  0  0
  1  2  2  0  0  0  0
  2  3  1  0  0  0  0
  2  4  1  0  0  0  0
  3  5  1  0  0  0  0
  3  6  1  0  0  0  0
  4  7  2  0  0  0  0
  4  8  1  0  0  0  0
  5  9  1  0  0  0  0
  8 10  1  0  0  0  0
  9 11  2  0  0  0  0
 10 12  2  0  0  0  0
 12 13  1  0  0  0  0
 13 14  2  0  0  0  0
 13 15  1  0  0  0  0
  5  8  2  0  0  0  0
 11 12  1  0  0  0  0
M  END
>  <MolRegNo>
246173

>  <m>
<

>  <Value>
25

>  <Unit>
%

>  <Type>
Inhibition

>  <Ligand Efficiency>


>  <Binding Efficiency>


>  <Surface Efficiency>


>  <Assay Index>
262887

>  <Assay Category>


>  <Assay Organism>
SARS coronavirus

>  <Target ID>
20012

>  <Target Name>
SARS coronavirus 3C-like proteinase

>  <Target Organism>
SARS coronavirus

>  <Target Description>
Target is a single protein chain

>  <Sequence Accession>
P0C6U8

>  <Reference>
J. Med. Chem. 49 (12), 3440-3443 (2006)

>  <Pubmed ID>
16759084

>  <DOI>
10.1021/jm0602357

>  <InChI-Key>
ROPLRWWORDJINQ-UHFFFAOYSA-N

>  <Molecular Formula>
C10H7NO4

>  <Monoisotopic Mass>
205.037509

>  <Druglikeness>
-0.57007

$$$$
Compound 482
Actelion Java MolfileCreator 1.0

 23 24  0  0  0  0  0  0  0  0999 V2000
    0.0000   -0.0000   -0.0000 Cl  0  0  0  0  0  0  0  0  0  0  0  0
   -0.0119   -1.4942   -0.0000 C   0  0  0  0  0  0  0  0  0  0  0  0
   -1.3282   -2.2295   -0.0000 C   0  0  0  0  0  0  0  0  0  0  0  0
    1.2808   -2.2295   -0.0000 C   0  0  0  0  0  0  0  0  0  0  0  0
   -1.3401   -3.7238   -0.0000 C   0  0  0  0  0  0  0  0  0  0  0  0
    1.2689   -3.7238   -0.0000 C   0  0  0  0  0  0  0  0  0  0  0  0
   -0.0474   -4.4590   -0.0000 C   0  0  0  0  0  0  0  0  0  0  0  0
   -0.0593   -5.9533   -0.0000 C   0  0  0  0  0  0  0  0  0  0  0  0
    1.2333   -6.7004   -0.0000 N   0  0  0  0  0  0  0  0  0  0  0  0
    1.2215   -8.1946   -0.0000 C   0  0  0  0  0  0  0  0  0  0  0  0
   -0.0949   -8.9418   -0.0000 C   0  0  0  0  0  0  0  0  0  0  0  0
    2.5141   -8.9418   -0.0000 C   0  0  0  0  0  0  0  0  0  0  0  0
   -0.1067  -10.4360   -0.0000 C   0  0  0  0  0  0  0  0  0  0  0  0
    2.5023  -10.4360   -0.0000 C   0  0  0  0  0  0  0  0  0  0  0  0
   -1.4231  -11.1831   -0.0000 C   0  0  0  0  0  0  0  0  0  0  0  0
    1.1859  -11.1831   -0.0000 C   0  0  0  0  0  0  0  0  0  0  0  0
   -2.7395  -10.4241   -0.0000 O   0  0  0  0  0  0  0  0  0  0  0  0
   -1.4350  -12.6774   -0.0000 C   0  0  0  0  0  0  0  0  0  0  0  0
   -2.7513  -13.4126   -0.0000 C   0  0  0  0  0  0  0  0  0  0  0  0
   -4.0677  -12.6537   -0.0000 O   0  0  0  0  0  0  0  0  0  0  0  0
   -2.7632  -14.9069   -0.0000 C   0  0  0  0  0  0  0  0  0  0  0  0
   -4.0795  -15.6421   -0.0000 O   0  0  0  0  0  0  0  0  0  0  0  0
   -1.4705  -15.6421   -0.0000 O   0  0  0  0  0  0  0  0  0  0  0  0
  1  2  1  0  0  0  0
  2  3  2  0  0  0  0
  2  4  1  0  0  0  0
  3  5  1  0  0  0  0
  4  6  2  0  0  0  0
  5  7  2  0  0  0  0
  7  8  1  0  0  0  0
  8  9  1  0  0  0  0
  9 10  1  0  0  0  0
 10 11  2  0  0  0  0
 10 12  1  0  0  0  0
 11 13  1  0  0  0  0
 12 14  2  0  0  0  0
 13 15  1  0  0  0  0
 13 16  2  0  0  0  0
 15 17  2  0  0  0  0
 15 18  1  0  0  0  0
 18 19  2  0  0  0  0
 19 20  1  0  0  0  0
 19 21  1  0  0  0  0
 21 22  2  0  0  0  0
 21 23  1  0  0  0  0
  6  7  1  0  0  0  0
 14 16  1  0  0  0  0
M  END
>  <MolRegNo>
478530

>  <m>
>

>  <Value>
50000

>  <Unit>
nM

>  <Type>
IC50

>  <Ligand Efficiency>


>  <Binding Efficiency>


>  <Surface Efficiency>


>  <Assay Index>
414789

>  <Assay Category>


>  <Assay Organism>
SARS coronavirus

>  <Target ID>
101075

>  <Target Name>
Replicase polyprotein 1ab

>  <Target Organism>
SARS coronavirus

>  <Target Description>
Target is a single protein chain

>  <Sequence Accession>
P0C6X7

>  <Reference>
Bioorg. Med. Chem. Lett. 19 (6), 1636-1638 (2009)

>  <Pubmed ID>
19233643

>  <DOI>
10.1016/j.bmcl.2009.02.010

>  <InChI-Key>
ROUGYGWUYPVREL-UHFFFAOYSA-N

>  <Molecular Formula>
C17H14NO4Cl

>  <Monoisotopic Mass>
331.061136

>  <Druglikeness>
2.1868

$$$$
Compound 483
Actelion Java MolfileCreator 1.0

 23 24  0  0  0  0  0  0  0  0999 V2000
    0.0000   -0.0000   -0.0000 Cl  0  0  0  0  0  0  0  0  0  0  0  0
   -0.0119   -1.4942   -0.0000 C   0  0  0  0  0  0  0  0  0  0  0  0
   -1.3282   -2.2295   -0.0000 C   0  0  0  0  0  0  0  0  0  0  0  0
    1.2808   -2.2295   -0.0000 C   0  0  0  0  0  0  0  0  0  0  0  0
   -1.3401   -3.7238   -0.0000 C   0  0  0  0  0  0  0  0  0  0  0  0
    1.2689   -3.7238   -0.0000 C   0  0  0  0  0  0  0  0  0  0  0  0
   -0.0474   -4.4590   -0.0000 C   0  0  0  0  0  0  0  0  0  0  0  0
   -0.0593   -5.9533   -0.0000 C   0  0  0  0  0  0  0  0  0  0  0  0
    1.2333   -6.7004   -0.0000 N   0  0  0  0  0  0  0  0  0  0  0  0
    1.2215   -8.1946   -0.0000 C   0  0  0  0  0  0  0  0  0  0  0  0
   -0.0949   -8.9418   -0.0000 C   0  0  0  0  0  0  0  0  0  0  0  0
    2.5141   -8.9418   -0.0000 C   0  0  0  0  0  0  0  0  0  0  0  0
   -0.1067  -10.4360   -0.0000 C   0  0  0  0  0  0  0  0  0  0  0  0
    2.5023  -10.4360   -0.0000 C   0  0  0  0  0  0  0  0  0  0  0  0
   -1.4231  -11.1831   -0.0000 C   0  0  0  0  0  0  0  0  0  0  0  0
    1.1859  -11.1831   -0.0000 C   0  0  0  0  0  0  0  0  0  0  0  0
   -2.7395  -10.4241   -0.0000 O   0  0  0  0  0  0  0  0  0  0  0  0
   -1.4350  -12.6774   -0.0000 C   0  0  0  0  0  0  0  0  0  0  0  0
   -2.7513  -13.4126   -0.0000 C   0  0  0  0  0  0  0  0  0  0  0  0
   -4.0677  -12.6537   -0.0000 O   0  0  0  0  0  0  0  0  0  0  0  0
   -2.7632  -14.9069   -0.0000 C   0  0  0  0  0  0  0  0  0  0  0  0
   -4.0795  -15.6421   -0.0000 O   0  0  0  0  0  0  0  0  0  0  0  0
   -1.4705  -15.6421   -0.0000 O   0  0  0  0  0  0  0  0  0  0  0  0
  1  2  1  0  0  0  0
  2  3  2  0  0  0  0
  2  4  1  0  0  0  0
  3  5  1  0  0  0  0
  4  6  2  0  0  0  0
  5  7  2  0  0  0  0
  7  8  1  0  0  0  0
  8  9  1  0  0  0  0
  9 10  1  0  0  0  0
 10 11  2  0  0  0  0
 10 12  1  0  0  0  0
 11 13  1  0  0  0  0
 12 14  2  0  0  0  0
 13 15  1  0  0  0  0
 13 16  2  0  0  0  0
 15 17  2  0  0  0  0
 15 18  1  0  0  0  0
 18 19  2  0  0  0  0
 19 20  1  0  0  0  0
 19 21  1  0  0  0  0
 21 22  2  0  0  0  0
 21 23  1  0  0  0  0
  6  7  1  0  0  0  0
 14 16  1  0  0  0  0
M  END
>  <MolRegNo>
478530

>  <m>
=

>  <Value>
11000

>  <Unit>
nM

>  <Type>
IC50

>  <Ligand Efficiency>
0.29

>  <Binding Efficiency>
14.95

>  <Surface Efficiency>
5.72

>  <Assay Index>
414790

>  <Assay Category>


>  <Assay Organism>
SARS coronavirus

>  <Target ID>
101075

>  <Target Name>
Replicase polyprotein 1ab

>  <Target Organism>
SARS coronavirus

>  <Target Description>
Target is a single protein chain

>  <Sequence Accession>
P0C6X7

>  <Reference>
Bioorg. Med. Chem. Lett. 19 (6), 1636-1638 (2009)

>  <Pubmed ID>
19233643

>  <DOI>
10.1016/j.bmcl.2009.02.010

>  <InChI-Key>
ROUGYGWUYPVREL-UHFFFAOYSA-N

>  <Molecular Formula>
C17H14NO4Cl

>  <Monoisotopic Mass>
331.061136

>  <Druglikeness>
2.1868

$$$$
Compound 484
Actelion Java MolfileCreator 1.0

 33 36  0  0  1  0  0  0  0  0999 V2000
    0.0000   -0.0000   -0.0000 O   0  0  0  0  0  0  0  0  0  0  0  0
   -0.0118    1.4997   -0.0000 C   0  0  0  0  0  0  0  0  0  0  0  0
    1.2754    2.2673   -0.0000 N   0  0  0  0  0  0  0  0  0  0  0  0
   -1.3226    2.2555   -0.0000 C   0  0  0  0  0  0  0  0  0  0  0  0
    2.5625    1.5352   -0.0000 C   0  0  0  0  0  0  0  0  0  0  0  0
   -2.0784    3.5663   -0.0000 N   0  0  0  0  0  0  0  0  0  0  0  0
   -2.8341    2.2673   -0.0000 C   0  0  0  0  0  0  0  0  0  0  0  0
    3.8497    2.3027   -0.0000 C   0  0  0  0  0  0  0  0  0  0  0  0
    2.5625    0.0472   -0.0000 C   0  0  0  0  0  0  0  0  0  0  0  0
   -2.0902    5.0778   -0.0000 C   0  0  0  0  0  0  0  0  0  0  0  0
   -4.1449    1.5352   -0.0000 C   0  0  0  0  0  0  0  0  0  0  0  0
    3.8261    3.8143   -0.0000 O   0  0  0  0  0  0  0  0  0  0  0  0
    5.1369    1.5706   -0.0000 O   0  0  0  0  0  0  0  0  0  0  0  0
    3.8615   -0.6849   -0.0000 C   0  0  0  0  0  0  0  0  0  0  0  0
    1.2636   -0.6967   -0.0000 C   0  0  0  0  0  0  0  0  0  0  0  0
   -0.8148    5.8454   -0.0000 C   0  0  0  0  0  0  0  0  0  0  0  0
   -5.4557    2.2909   -0.0000 C   0  0  0  0  0  0  0  0  0  0  0  0
   -4.1567    0.0590   -0.0000 C   0  0  0  0  0  0  0  0  0  0  0  0
    6.4123    2.3382   -0.0000 C   0  0  0  0  0  0  0  0  0  0  0  0
    0.4724    5.1015   -0.0000 C   0  0  0  0  0  0  0  0  0  0  0  0
   -0.8384    7.3452   -0.0000 C   0  0  0  0  0  0  0  0  0  0  0  0
   -6.7665    1.5588   -0.0000 C   0  0  0  0  0  0  0  0  0  0  0  0
   -5.4557   -0.6849   -0.0000 C   0  0  0  0  0  0  0  0  0  0  0  0
    6.3886    3.8497   -0.0000 C   0  0  0  0  0  0  0  0  0  0  0  0
    1.7595    5.8690   -0.0000 C   0  0  0  0  0  0  0  0  0  0  0  0
    0.4369    8.1009   -0.0000 C   0  0  0  0  0  0  0  0  0  0  0  0
   -6.7783    0.0709   -0.0000 C   0  0  0  0  0  0  0  0  0  0  0  0
    7.6640    4.6173   -0.0000 C   0  0  0  0  0  0  0  0  0  0  0  0
    5.0778    4.5937   -0.0000 C   0  0  0  0  0  0  0  0  0  0  0  0
    1.7477    7.3806   -0.0000 C   0  0  0  0  0  0  0  0  0  0  0  0
    7.6404    6.1288   -0.0000 C   0  0  0  0  0  0  0  0  0  0  0  0
    5.0424    6.1052   -0.0000 C   0  0  0  0  0  0  0  0  0  0  0  0
    6.3296    6.8846   -0.0000 C   0  0  0  0  0  0  0  0  0  0  0  0
  1  2  2  0  0  0  0
  2  3  1  0  0  0  0
  2  4  1  0  0  0  0
  5  3  1  6  0  0  0
  4  6  1  0  0  0  0
  4  7  1  0  0  0  0
  5  8  1  0  0  0  0
  5  9  1  0  0  0  0
  6 10  1  0  0  0  0
  7 11  1  0  0  0  0
  8 12  2  0  0  0  0
  8 13  1  0  0  0  0
  9 14  1  0  0  0  0
  9 15  1  0  0  0  0
 10 16  1  0  0  0  0
 11 17  2  0  0  0  0
 11 18  1  0  0  0  0
 13 19  1  0  0  0  0
 16 20  2  0  0  0  0
 16 21  1  0  0  0  0
 17 22  1  0  0  0  0
 18 23  2  0  0  0  0
 19 24  1  0  0  0  0
 20 25  1  0  0  0  0
 21 26  2  0  0  0  0
 22 27  2  0  0  0  0
 24 28  2  0  0  0  0
 24 29  1  0  0  0  0
 25 30  2  0  0  0  0
 28 31  1  0  0  0  0
 29 32  2  0  0  0  0
 31 33  2  0  0  0  0
  6  7  1  0  0  0  0
 23 27  1  0  0  0  0
 26 30  1  0  0  0  0
 32 33  1  0  0  0  0
M  END
>  <MolRegNo>
333656

>  <m>
=

>  <Value>
22

>  <Unit>
%

>  <Type>
Inhibition

>  <Ligand Efficiency>


>  <Binding Efficiency>


>  <Surface Efficiency>


>  <Assay Index>
254531

>  <Assay Category>


>  <Assay Organism>
SARS coronavirus

>  <Target ID>
20012

>  <Target Name>
SARS coronavirus 3C-like proteinase

>  <Target Organism>
SARS coronavirus

>  <Target Description>
Target is a single protein chain

>  <Sequence Accession>
P0C6U8

>  <Reference>
Bioorg. Med. Chem. Lett. 15 (24), 5365-5369 (2005)

>  <Pubmed ID>
16216498

>  <DOI>
10.1016/j.bmcl.2005.09.012

>  <InChI-Key>
RPOWSWXHRMOKOW-RYMOPXOPSA-N

>  <Molecular Formula>
C28H30N2O3

>  <Monoisotopic Mass>
442.225643

>  <Druglikeness>
5.1041

$$$$
Compound 485
Actelion Java MolfileCreator 1.0

 18 19  0  0  0  0  0  0  0  0999 V2000
    0.0000   -0.0000   -0.0000 Cl  0  0  0  0  0  0  0  0  0  0  0  0
    1.2847    0.7613   -0.0000 C   0  0  0  0  0  0  0  0  0  0  0  0
    2.5695    0.0238   -0.0000 C   0  0  0  0  0  0  0  0  0  0  0  0
    1.2728    2.2840   -0.0000 C   0  0  0  0  0  0  0  0  0  0  0  0
    3.8661    0.7851   -0.0000 C   0  0  0  0  0  0  0  0  0  0  0  0
    2.5576    3.0453   -0.0000 C   0  0  0  0  0  0  0  0  0  0  0  0
    3.8542    2.3078   -0.0000 C   0  0  0  0  0  0  0  0  0  0  0  0
    5.1390    3.0691   -0.0000 S   0  0  0  0  0  0  0  0  0  0  0  0
    5.8884    1.7844   -0.0000 O   0  0  0  0  0  0  0  0  0  0  0  0
    4.3658    4.3776   -0.0000 O   0  0  0  0  0  0  0  0  0  0  0  0
    6.4237    3.8423   -0.0000 C   0  0  0  0  0  0  0  0  0  0  0  0
    7.7204    3.1048   -0.0000 C   0  0  0  0  0  0  0  0  0  0  0  0
    6.3999    5.3531   -0.0000 C   0  0  0  0  0  0  0  0  0  0  0  0
    9.0051    3.8780   -0.0000 N   0  0  0  0  0  0  0  0  0  0  0  0
    7.7204    1.6178   -0.0000 N   0  0  0  0  0  0  0  0  0  0  0  0
    7.6728    6.1263   -0.0000 N   0  0  0  0  0  0  0  0  0  0  0  0
    8.9813    5.3888   -0.0000 C   0  0  0  0  0  0  0  0  0  0  0  0
   10.2661    6.1620   -0.0000 N   0  0  0  0  0  0  0  0  0  0  0  0
  1  2  1  0  0  0  0
  2  3  2  0  0  0  0
  2  4  1  0  0  0  0
  3  5  1  0  0  0  0
  4  6  2  0  0  0  0
  5  7  2  0  0  0  0
  7  8  1  0  0  0  0
  8  9  2  0  0  0  0
  8 10  2  0  0  0  0
  8 11  1  0  0  0  0
 11 12  2  0  0  0  0
 11 13  1  0  0  0  0
 12 14  1  0  0  0  0
 12 15  1  0  0  0  0
 13 16  2  0  0  0  0
 14 17  2  0  0  0  0
 17 18  1  0  0  0  0
  6  7  1  0  0  0  0
 16 17  1  0  0  0  0
M  END
>  <MolRegNo>
356546

>  <m>
=

>  <Value>
6000

>  <Unit>
nM

>  <Type>
IC50

>  <Ligand Efficiency>
0.40

>  <Binding Efficiency>
18.34

>  <Surface Efficiency>
4.66

>  <Assay Index>
266027

>  <Assay Category>


>  <Assay Organism>
SARS coronavirus

>  <Target ID>
20012

>  <Target Name>
SARS coronavirus 3C-like proteinase

>  <Target Organism>
SARS coronavirus

>  <Target Description>
Target is a single protein chain

>  <Sequence Accession>
P0C6U8

>  <Reference>
J. Med. Chem. 49 (17), 5154-5161 (2006)

>  <Pubmed ID>
16913704

>  <DOI>
10.1021/jm060207o

>  <InChI-Key>
RPPFHWBHHCJZJS-UHFFFAOYSA-N

>  <Molecular Formula>
C10H9N4O2ClS

>  <Monoisotopic Mass>
284.013473

>  <Druglikeness>
0.027415

$$$$
Compound 486
Actelion Java MolfileCreator 1.0

 15 16  0  0  0  0  0  0  0  0999 V2000
    0.0000   -0.0000   -0.0000 S   0  0  0  0  0  0  0  0  0  0  0  0
    1.3625    0.6215   -0.0000 C   0  0  0  0  0  0  0  0  0  0  0  0
   -1.0159    1.1354   -0.0000 C   0  0  0  0  0  0  0  0  0  0  0  0
    2.6533   -0.1195   -0.0000 C   0  0  0  0  0  0  0  0  0  0  0  0
    1.1952    2.1275   -0.0000 C   0  0  0  0  0  0  0  0  0  0  0  0
   -0.2749    2.4502   -0.0000 C   0  0  0  0  0  0  0  0  0  0  0  0
    2.6414   -1.6135   -0.0000 O   0  0  0  0  0  0  0  0  0  0  0  0
    3.9442    0.6454   -0.0000 O   0  0  0  0  0  0  0  0  0  0  0  0
    5.2350   -0.0956   -0.0000 C   0  0  0  0  0  0  0  0  0  0  0  0
    6.5258    0.6693   -0.0000 N   0  0  0  0  0  0  0  0  0  0  0  0
    5.2230   -1.6016   -0.0000 C   0  0  0  0  0  0  0  0  0  0  0  0
    7.8166   -0.0717   -0.0000 C   0  0  0  0  0  0  0  0  0  0  0  0
    6.5138   -2.3426   -0.0000 C   0  0  0  0  0  0  0  0  0  0  0  0
    7.8047   -1.5777   -0.0000 C   0  0  0  0  0  0  0  0  0  0  0  0
    9.0955   -2.3187   -0.0000 C   0  0  0  0  0  0  0  0  0  0  0  0
  1  2  1  0  0  0  0
  1  3  1  0  0  0  0
  2  4  1  0  0  0  0
  2  5  2  0  0  0  0
  3  6  2  0  0  0  0
  4  7  2  0  0  0  0
  4  8  1  0  0  0  0
  8  9  1  0  0  0  0
  9 10  2  0  0  0  0
  9 11  1  0  0  0  0
 10 12  1  0  0  0  0
 11 13  2  0  0  0  0
 12 14  2  0  0  0  0
 14 15  1  0  0  0  0
  5  6  1  0  0  0  0
 13 14  1  0  0  0  0
M  END
>  <MolRegNo>
371835

>  <m>
<

>  <Value>
10

>  <Unit>
%

>  <Type>
Inhibition

>  <Ligand Efficiency>


>  <Binding Efficiency>


>  <Surface Efficiency>


>  <Assay Index>
278390

>  <Assay Category>


>  <Assay Organism>
SARS coronavirus

>  <Target ID>
20012

>  <Target Name>
SARS coronavirus 3C-like proteinase

>  <Target Organism>
SARS coronavirus

>  <Target Description>
Target is a single protein chain

>  <Sequence Accession>
P0C6U8

>  <Reference>
J. Med. Chem. 50 (8), 1850-1864 (2007)

>  <Pubmed ID>
17381079

>  <DOI>
10.1021/jm061425k

>  <InChI-Key>
RRTRORDSXMWVBI-UHFFFAOYSA-N

>  <Molecular Formula>
C11H9NO2S

>  <Monoisotopic Mass>
219.035399

>  <Druglikeness>
1.7228

$$$$
Compound 487
Actelion Java MolfileCreator 1.0

 12 12  0  0  0  0  0  0  0  0999 V2000
    0.0000   -0.0000   -0.0000 O   0  0  0  0  0  0  0  0  0  0  0  0
    0.0119   -1.4944   -0.0000 C   0  0  0  0  0  0  0  0  0  0  0  0
    1.3165   -2.2060   -0.0000 O   0  0  0  0  0  0  0  0  0  0  0  0
   -1.2928   -2.2535   -0.0000 C   0  0  0  0  0  0  0  0  0  0  0  0
    2.5974   -1.4232   -0.0000 C   0  0  0  0  0  0  0  0  0  0  0  0
   -2.0518   -0.9370   -0.0000 N   0  0  0  0  0  0  0  0  0  0  0  0
   -0.5574   -3.5344   -0.0000 C   0  0  0  0  0  0  0  0  0  0  0  0
   -2.8109   -2.2416   -0.0000 C   0  0  0  0  0  0  0  0  0  0  0  0
   -1.3284   -4.8153   -0.0000 O   0  0  0  0  0  0  0  0  0  0  0  0
    0.9370   -3.5225   -0.0000 O   0  0  0  0  0  0  0  0  0  0  0  0
   -4.1274   -2.9769   -0.0000 C   0  0  0  0  0  0  0  0  0  0  0  0
    1.6723   -4.8153   -0.0000 C   0  0  0  0  0  0  0  0  0  0  0  0
  1  2  2  0  0  0  0
  2  3  1  0  0  0  0
  2  4  1  0  0  0  0
  3  5  1  0  0  0  0
  4  6  1  0  0  0  0
  4  7  1  0  0  0  0
  4  8  1  0  0  0  0
  7  9  2  0  0  0  0
  7 10  1  0  0  0  0
  8 11  1  0  0  0  0
 10 12  1  0  0  0  0
  6  8  1  0  0  0  0
M  END
>  <MolRegNo>
333518

>  <m>
<

>  <Value>
10

>  <Unit>
%

>  <Type>
Inhibition

>  <Ligand Efficiency>


>  <Binding Efficiency>


>  <Surface Efficiency>


>  <Assay Index>
254534

>  <Assay Category>


>  <Assay Organism>
SARS coronavirus

>  <Target ID>
20012

>  <Target Name>
SARS coronavirus 3C-like proteinase

>  <Target Organism>
SARS coronavirus

>  <Target Description>
Target is a single protein chain

>  <Sequence Accession>
P0C6U8

>  <Reference>
Bioorg. Med. Chem. Lett. 15 (24), 5365-5369 (2005)

>  <Pubmed ID>
16216498

>  <DOI>
10.1016/j.bmcl.2005.09.012

>  <InChI-Key>
RSGQUJKNULRIBJ-UHFFFAOYSA-N

>  <Molecular Formula>
C7H11NO4

>  <Monoisotopic Mass>
173.068809

>  <Druglikeness>
-9.3557

$$$$
Compound 488
Actelion Java MolfileCreator 1.0

 16 17  0  0  0  0  0  0  0  0999 V2000
    0.0000   -0.0000   -0.0000 Cl  0  0  0  0  0  0  0  0  0  0  0  0
   -1.3036   -0.7466   -0.0000 C   0  0  0  0  0  0  0  0  0  0  0  0
   -1.3154   -2.2398   -0.0000 C   0  0  0  0  0  0  0  0  0  0  0  0
   -2.6190   -0.0000   -0.0000 C   0  0  0  0  0  0  0  0  0  0  0  0
   -2.6309   -2.9746   -0.0000 N   0  0  0  0  0  0  0  0  0  0  0  0
   -3.9108   -0.7348   -0.0000 C   0  0  0  0  0  0  0  0  0  0  0  0
   -3.9345   -2.2161   -0.0000 C   0  0  0  0  0  0  0  0  0  0  0  0
   -5.2144    0.0237   -0.0000 O   0  0  0  0  0  0  0  0  0  0  0  0
   -6.5180   -0.7111   -0.0000 C   0  0  0  0  0  0  0  0  0  0  0  0
   -6.5298   -2.1924   -0.0000 O   0  0  0  0  0  0  0  0  0  0  0  0
   -7.8216    0.0474   -0.0000 C   0  0  0  0  0  0  0  0  0  0  0  0
   -7.8334    1.5525   -0.0000 C   0  0  0  0  0  0  0  0  0  0  0  0
   -9.1133   -0.6874   -0.0000 C   0  0  0  0  0  0  0  0  0  0  0  0
   -9.1370    2.3109   -0.0000 C   0  0  0  0  0  0  0  0  0  0  0  0
  -10.4169    0.0593   -0.0000 C   0  0  0  0  0  0  0  0  0  0  0  0
  -10.4406    1.5762   -0.0000 C   0  0  0  0  0  0  0  0  0  0  0  0
  1  2  1  0  0  0  0
  2  3  2  0  0  0  0
  2  4  1  0  0  0  0
  3  5  1  0  0  0  0
  4  6  2  0  0  0  0
  5  7  2  0  0  0  0
  6  8  1  0  0  0  0
  8  9  1  0  0  0  0
  9 10  2  0  0  0  0
  9 11  1  0  0  0  0
 11 12  2  0  0  0  0
 11 13  1  0  0  0  0
 12 14  1  0  0  0  0
 13 15  2  0  0  0  0
 14 16  2  0  0  0  0
  6  7  1  0  0  0  0
 15 16  1  0  0  0  0
M  END
>  <MolRegNo>
371868

>  <m>
=

>  <Value>
92

>  <Unit>
%

>  <Type>
Inhibition

>  <Ligand Efficiency>


>  <Binding Efficiency>


>  <Surface Efficiency>


>  <Assay Index>
278390

>  <Assay Category>


>  <Assay Organism>
SARS coronavirus

>  <Target ID>
20012

>  <Target Name>
SARS coronavirus 3C-like proteinase

>  <Target Organism>
SARS coronavirus

>  <Target Description>
Target is a single protein chain

>  <Sequence Accession>
P0C6U8

>  <Reference>
J. Med. Chem. 50 (8), 1850-1864 (2007)

>  <Pubmed ID>
17381079

>  <DOI>
10.1021/jm061425k

>  <InChI-Key>
RXXILUSATOQNRG-UHFFFAOYSA-N

>  <Molecular Formula>
C12H8NO2Cl

>  <Monoisotopic Mass>
233.024356

>  <Druglikeness>
-1.3017

$$$$
Compound 489
Actelion Java MolfileCreator 1.0

 11 12  0  0  0  0  0  0  0  0999 V2000
    0.0000   -0.0000   -0.0000 O   0  0  0  0  0  0  0  0  0  0  0  0
   -0.7446   -1.2797   -0.0000 C   0  0  0  0  0  0  0  0  0  0  0  0
   -2.2337   -1.2797   -0.0000 C   0  0  0  0  0  0  0  0  0  0  0  0
   -3.1294   -0.0582   -0.0000 N   0  0  0  0  0  0  0  0  0  0  0  0
   -3.1178   -2.4896   -0.0000 C   0  0  0  0  0  0  0  0  0  0  0  0
   -4.5604   -0.5119   -0.0000 C   0  0  0  0  0  0  0  0  0  0  0  0
   -4.5604   -2.0243   -0.0000 C   0  0  0  0  0  0  0  0  0  0  0  0
   -5.8634    0.2327   -0.0000 C   0  0  0  0  0  0  0  0  0  0  0  0
   -5.8634   -2.7572   -0.0000 C   0  0  0  0  0  0  0  0  0  0  0  0
   -7.1547   -0.5002   -0.0000 C   0  0  0  0  0  0  0  0  0  0  0  0
   -7.1663   -2.0010   -0.0000 C   0  0  0  0  0  0  0  0  0  0  0  0
  1  2  2  0  0  0  0
  2  3  1  0  0  0  0
  3  4  1  0  0  0  0
  3  5  2  0  0  0  0
  4  6  1  0  0  0  0
  5  7  1  0  0  0  0
  6  8  1  0  0  0  0
  7  9  1  0  0  0  0
  8 10  2  0  0  0  0
  9 11  2  0  0  0  0
  6  7  2  0  0  0  0
 10 11  1  0  0  0  0
M  END
>  <MolRegNo>
371759

>  <m>
=

>  <Value>
39

>  <Unit>
%

>  <Type>
Inhibition

>  <Ligand Efficiency>


>  <Binding Efficiency>


>  <Surface Efficiency>


>  <Assay Index>
278390

>  <Assay Category>


>  <Assay Organism>
SARS coronavirus

>  <Target ID>
20012

>  <Target Name>
SARS coronavirus 3C-like proteinase

>  <Target Organism>
SARS coronavirus

>  <Target Description>
Target is a single protein chain

>  <Sequence Accession>
P0C6U8

>  <Reference>
J. Med. Chem. 50 (8), 1850-1864 (2007)

>  <Pubmed ID>
17381079

>  <DOI>
10.1021/jm061425k

>  <InChI-Key>
SBNOTUDDIXOFSN-UHFFFAOYSA-N

>  <Molecular Formula>
C9H7NO

>  <Monoisotopic Mass>
145.052764

>  <Druglikeness>
-1.7158

$$$$
Compound 490
Actelion Java MolfileCreator 1.0

 17 18  0  0  1  0  0  0  0  0999 V2000
    0.0000   -0.0000   -0.0000 O   0  0  0  0  0  0  0  0  0  0  0  0
   -1.1096   -1.0034   -0.0000 C   0  0  0  0  0  0  0  0  0  0  0  0
   -0.7909   -2.4554   -0.0000 N   0  0  0  0  0  0  0  0  0  0  0  0
   -2.5498   -0.5430   -0.0000 C   0  0  0  0  0  0  0  0  0  0  0  0
   -3.7657   -1.4284   -0.0000 N   0  0  0  0  0  0  0  0  0  0  0  0
   -3.0338    0.8853   -0.0000 N   0  0  0  0  0  0  0  0  0  0  0  0
   -4.9933   -0.5548   -0.0000 N   0  0  0  0  0  0  0  0  0  0  0  0
   -4.5448    0.8853   -0.0000 C   0  0  0  0  0  0  0  0  0  0  0  0
   -6.4217   -1.0152   -0.0000 C   0  0  0  0  0  0  0  0  0  0  0  0
   -7.6494   -0.1417   -0.0000 C   0  0  0  0  0  0  0  0  0  0  0  0
   -6.8821   -2.4317   -0.0000 C   0  0  0  0  0  0  0  0  0  0  0  0
   -8.8653   -1.0152   -0.0000 C   0  0  0  0  0  0  0  0  0  0  0  0
   -6.0085   -3.6240   -0.0000 O   0  0  0  0  0  0  0  0  0  0  0  0
   -8.3931   -2.4317   -0.0000 C   0  0  0  0  0  0  0  0  0  0  0  0
  -10.2936   -0.5548   -0.0000 C   0  0  0  0  0  0  0  0  0  0  0  0
   -9.2666   -3.6240   -0.0000 O   0  0  0  0  0  0  0  0  0  0  0  0
  -10.6241    0.9208   -0.0000 O   0  0  0  0  0  0  0  0  0  0  0  0
  1  2  2  0  0  0  0
  2  3  1  0  0  0  0
  2  4  1  0  0  0  0
  4  5  2  0  0  0  0
  4  6  1  0  0  0  0
  5  7  1  0  0  0  0
  6  8  2  0  0  0  0
  9  7  1  1  0  0  0
  9 10  1  0  0  0  0
  9 11  1  0  0  0  0
 10 12  2  0  0  0  0
 11 13  1  6  0  0  0
 11 14  1  0  0  0  0
 12 15  1  0  0  0  0
 14 16  1  6  0  0  0
 15 17  1  0  0  0  0
  7  8  1  0  0  0  0
 12 14  1  0  0  0  0
M  END
>  <MolRegNo>
337991

>  <m>
=

>  <Value>
21000

>  <Unit>
nM

>  <Type>
EC50

>  <Ligand Efficiency>


>  <Binding Efficiency>


>  <Surface Efficiency>


>  <Assay Index>
256629

>  <Assay Category>


>  <Assay Organism>
SARS coronavirus

>  <Target ID>
100499

>  <Target Name>
SARS coronavirus

>  <Target Organism>
SARS coronavirus

>  <Target Description>
Target is a complete organism

>  <Sequence Accession>


>  <Reference>
J. Med. Chem. 49 (3), 1140-1148 (2006)

>  <Pubmed ID>
16451078

>  <DOI>
10.1021/jm0509750

>  <InChI-Key>
SDSBENOAFNBOKL-VQVTYTSYSA-N

>  <Molecular Formula>
C9H12N4O4

>  <Monoisotopic Mass>
240.085856

>  <Druglikeness>
4.356

$$$$
Compound 491
Actelion Java MolfileCreator 1.0

 17 18  0  0  1  0  0  0  0  0999 V2000
    0.0000   -0.0000   -0.0000 O   0  0  0  0  0  0  0  0  0  0  0  0
   -1.1096   -1.0034   -0.0000 C   0  0  0  0  0  0  0  0  0  0  0  0
   -0.7909   -2.4554   -0.0000 N   0  0  0  0  0  0  0  0  0  0  0  0
   -2.5498   -0.5430   -0.0000 C   0  0  0  0  0  0  0  0  0  0  0  0
   -3.7657   -1.4284   -0.0000 N   0  0  0  0  0  0  0  0  0  0  0  0
   -3.0338    0.8853   -0.0000 N   0  0  0  0  0  0  0  0  0  0  0  0
   -4.9933   -0.5548   -0.0000 N   0  0  0  0  0  0  0  0  0  0  0  0
   -4.5448    0.8853   -0.0000 C   0  0  0  0  0  0  0  0  0  0  0  0
   -6.4217   -1.0152   -0.0000 C   0  0  0  0  0  0  0  0  0  0  0  0
   -7.6494   -0.1417   -0.0000 C   0  0  0  0  0  0  0  0  0  0  0  0
   -6.8821   -2.4317   -0.0000 C   0  0  0  0  0  0  0  0  0  0  0  0
   -8.8653   -1.0152   -0.0000 C   0  0  0  0  0  0  0  0  0  0  0  0
   -6.0085   -3.6240   -0.0000 O   0  0  0  0  0  0  0  0  0  0  0  0
   -8.3931   -2.4317   -0.0000 C   0  0  0  0  0  0  0  0  0  0  0  0
  -10.2936   -0.5548   -0.0000 C   0  0  0  0  0  0  0  0  0  0  0  0
   -9.2666   -3.6240   -0.0000 O   0  0  0  0  0  0  0  0  0  0  0  0
  -10.6241    0.9208   -0.0000 O   0  0  0  0  0  0  0  0  0  0  0  0
  1  2  2  0  0  0  0
  2  3  1  0  0  0  0
  2  4  1  0  0  0  0
  4  5  2  0  0  0  0
  4  6  1  0  0  0  0
  5  7  1  0  0  0  0
  6  8  2  0  0  0  0
  9  7  1  1  0  0  0
  9 10  1  0  0  0  0
  9 11  1  0  0  0  0
 10 12  2  0  0  0  0
 11 13  1  6  0  0  0
 11 14  1  0  0  0  0
 12 15  1  0  0  0  0
 14 16  1  6  0  0  0
 15 17  1  0  0  0  0
  7  8  1  0  0  0  0
 12 14  1  0  0  0  0
M  END
>  <MolRegNo>
337991

>  <m>
>

>  <Value>
1.0e5

>  <Unit>
nM

>  <Type>
IC50

>  <Ligand Efficiency>


>  <Binding Efficiency>


>  <Surface Efficiency>


>  <Assay Index>
256635

>  <Assay Category>


>  <Assay Organism>
SARS coronavirus

>  <Target ID>
100499

>  <Target Name>
SARS coronavirus

>  <Target Organism>
SARS coronavirus

>  <Target Description>
Target is a complete organism

>  <Sequence Accession>


>  <Reference>
J. Med. Chem. 49 (3), 1140-1148 (2006)

>  <Pubmed ID>
16451078

>  <DOI>
10.1021/jm0509750

>  <InChI-Key>
SDSBENOAFNBOKL-VQVTYTSYSA-N

>  <Molecular Formula>
C9H12N4O4

>  <Monoisotopic Mass>
240.085856

>  <Druglikeness>
4.356

$$$$
Compound 492
Actelion Java MolfileCreator 1.0

 17 18  0  0  1  0  0  0  0  0999 V2000
    0.0000   -0.0000   -0.0000 O   0  0  0  0  0  0  0  0  0  0  0  0
   -1.1096   -1.0034   -0.0000 C   0  0  0  0  0  0  0  0  0  0  0  0
   -0.7909   -2.4554   -0.0000 N   0  0  0  0  0  0  0  0  0  0  0  0
   -2.5498   -0.5430   -0.0000 C   0  0  0  0  0  0  0  0  0  0  0  0
   -3.7657   -1.4284   -0.0000 N   0  0  0  0  0  0  0  0  0  0  0  0
   -3.0338    0.8853   -0.0000 N   0  0  0  0  0  0  0  0  0  0  0  0
   -4.9933   -0.5548   -0.0000 N   0  0  0  0  0  0  0  0  0  0  0  0
   -4.5448    0.8853   -0.0000 C   0  0  0  0  0  0  0  0  0  0  0  0
   -6.4217   -1.0152   -0.0000 C   0  0  0  0  0  0  0  0  0  0  0  0
   -7.6494   -0.1417   -0.0000 C   0  0  0  0  0  0  0  0  0  0  0  0
   -6.8821   -2.4317   -0.0000 C   0  0  0  0  0  0  0  0  0  0  0  0
   -8.8653   -1.0152   -0.0000 C   0  0  0  0  0  0  0  0  0  0  0  0
   -6.0085   -3.6240   -0.0000 O   0  0  0  0  0  0  0  0  0  0  0  0
   -8.3931   -2.4317   -0.0000 C   0  0  0  0  0  0  0  0  0  0  0  0
  -10.2936   -0.5548   -0.0000 C   0  0  0  0  0  0  0  0  0  0  0  0
   -9.2666   -3.6240   -0.0000 O   0  0  0  0  0  0  0  0  0  0  0  0
  -10.6241    0.9208   -0.0000 O   0  0  0  0  0  0  0  0  0  0  0  0
  1  2  2  0  0  0  0
  2  3  1  0  0  0  0
  2  4  1  0  0  0  0
  4  5  2  0  0  0  0
  4  6  1  0  0  0  0
  5  7  1  0  0  0  0
  6  8  2  0  0  0  0
  9  7  1  1  0  0  0
  9 10  1  0  0  0  0
  9 11  1  0  0  0  0
 10 12  2  0  0  0  0
 11 13  1  6  0  0  0
 11 14  1  0  0  0  0
 12 15  1  0  0  0  0
 14 16  1  6  0  0  0
 15 17  1  0  0  0  0
  7  8  1  0  0  0  0
 12 14  1  0  0  0  0
M  END
>  <MolRegNo>
337991

>  <m>
>

>  <Value>
4.8

>  <Unit>
-

>  <Type>
Selectivity index

>  <Ligand Efficiency>


>  <Binding Efficiency>


>  <Surface Efficiency>


>  <Assay Index>
256641

>  <Assay Category>


>  <Assay Organism>
SARS coronavirus

>  <Target ID>
100499

>  <Target Name>
SARS coronavirus

>  <Target Organism>
SARS coronavirus

>  <Target Description>
Target is a complete organism

>  <Sequence Accession>


>  <Reference>
J. Med. Chem. 49 (3), 1140-1148 (2006)

>  <Pubmed ID>
16451078

>  <DOI>
10.1021/jm0509750

>  <InChI-Key>
SDSBENOAFNBOKL-VQVTYTSYSA-N

>  <Molecular Formula>
C9H12N4O4

>  <Monoisotopic Mass>
240.085856

>  <Druglikeness>
4.356

$$$$
Compound 493
Actelion Java MolfileCreator 1.0

  7  7  0  0  1  0  0  0  0  0999 V2000
    0.0000   -0.0000   -0.0000 O   0  0  0  0  0  0  0  0  0  0  0  0
   -0.0118    1.5056   -0.0000 C   0  0  0  0  0  0  0  0  0  0  0  0
    1.2703    2.2583   -0.0000 O   0  0  0  0  0  0  0  0  0  0  0  0
   -1.3056    2.2583   -0.0000 C   0  0  0  0  0  0  0  0  0  0  0  0
   -2.0584    3.5639   -0.0000 O   0  0  0  0  0  0  0  0  0  0  0  0
   -2.8111    2.2701   -0.0000 C   0  0  0  0  0  0  0  0  0  0  0  0
   -4.1167    1.5291   -0.0000 C   0  0  0  0  0  0  0  0  0  0  0  0
  1  2  2  0  0  0  0
  2  3  1  0  0  0  0
  4  2  1  1  0  0  0
  4  5  1  0  0  0  0
  4  6  1  0  0  0  0
  6  7  1  1  0  0  0
  5  6  1  0  0  0  0
M  END
>  <MolRegNo>
333519

>  <m>
<

>  <Value>
10

>  <Unit>
%

>  <Type>
Inhibition

>  <Ligand Efficiency>


>  <Binding Efficiency>


>  <Surface Efficiency>


>  <Assay Index>
254534

>  <Assay Category>


>  <Assay Organism>
SARS coronavirus

>  <Target ID>
20012

>  <Target Name>
SARS coronavirus 3C-like proteinase

>  <Target Organism>
SARS coronavirus

>  <Target Description>
Target is a single protein chain

>  <Sequence Accession>
P0C6U8

>  <Reference>
Bioorg. Med. Chem. Lett. 15 (24), 5365-5369 (2005)

>  <Pubmed ID>
16216498

>  <DOI>
10.1016/j.bmcl.2005.09.012

>  <InChI-Key>
SEDGGCMDYFKAQN-STHAYSLISA-N

>  <Molecular Formula>
C4H6O3

>  <Monoisotopic Mass>
102.031695

>  <Druglikeness>
-0.42777

$$$$
Compound 494
Actelion Java MolfileCreator 1.0

 18 20  0  0  0  0  0  0  0  0999 V2000
    0.0000   -0.0000   -0.0000 Cl  0  0  0  0  0  0  0  0  0  0  0  0
   -0.0355   -1.4928   -0.0000 C   0  0  0  0  0  0  0  0  0  0  0  0
    1.2440   -2.2630   -0.0000 N   0  0  0  0  0  0  0  0  0  0  0  0
   -1.3625   -2.2156   -0.0000 C   0  0  0  0  0  0  0  0  0  0  0  0
    1.1966   -3.7558   -0.0000 C   0  0  0  0  0  0  0  0  0  0  0  0
   -2.7961   -1.7061   -0.0000 N   0  0  0  0  0  0  0  0  0  0  0  0
   -1.4099   -3.7084   -0.0000 C   0  0  0  0  0  0  0  0  0  0  0  0
   -0.1303   -4.4667   -0.0000 N   0  0  0  0  0  0  0  0  0  0  0  0
   -3.7084   -2.9027   -0.0000 C   0  0  0  0  0  0  0  0  0  0  0  0
   -2.8672   -4.1349   -0.0000 N   0  0  0  0  0  0  0  0  0  0  0  0
   -3.3767   -5.5448   -0.0000 C   0  0  0  0  0  0  0  0  0  0  0  0
   -2.7250   -6.8836   -0.0000 C   0  0  0  0  0  0  0  0  0  0  0  0
   -4.7392   -6.1846   -0.0000 C   0  0  0  0  0  0  0  0  0  0  0  0
   -4.0875   -7.5234   -0.0000 C   0  0  0  0  0  0  0  0  0  0  0  0
   -1.3151   -7.3576   -0.0000 C   0  0  0  0  0  0  0  0  0  0  0  0
   -4.5970   -8.9333   -0.0000 C   0  0  0  0  0  0  0  0  0  0  0  0
   -1.0426   -8.8267   -0.0000 O   0  0  0  0  0  0  0  0  0  0  0  0
   -6.0898   -9.2058   -0.0000 O   0  0  0  0  0  0  0  0  0  0  0  0
  1  2  1  0  0  0  0
  2  3  2  0  0  0  0
  2  4  1  0  0  0  0
  3  5  1  0  0  0  0
  4  6  1  0  0  0  0
  4  7  2  0  0  0  0
  5  8  2  0  0  0  0
  6  9  2  0  0  0  0
  7 10  1  0  0  0  0
 10 11  1  0  0  0  0
 11 12  1  0  0  0  0
 11 13  1  0  0  0  0
 12 14  1  0  0  0  0
 12 15  1  0  0  0  0
 14 16  1  0  0  0  0
 15 17  1  0  0  0  0
 16 18  1  0  0  0  0
  7  8  1  0  0  0  0
  9 10  1  0  0  0  0
 13 14  1  0  0  0  0
M  END
>  <MolRegNo>
386750

>  <m>
>

>  <Value>
3.0e5

>  <Unit>
nM

>  <Type>
IC50

>  <Ligand Efficiency>


>  <Binding Efficiency>


>  <Surface Efficiency>


>  <Assay Index>
287336

>  <Assay Category>


>  <Assay Organism>
SARS coronavirus

>  <Target ID>
100499

>  <Target Name>
SARS coronavirus

>  <Target Organism>
SARS coronavirus

>  <Target Description>
Target is a complete organism

>  <Sequence Accession>


>  <Reference>
Bioorg. Med. Chem. Lett. 17 (9), 2470-2473 (2007)

>  <Pubmed ID>
17336519

>  <DOI>
10.1016/j.bmcl.2007.02.026

>  <InChI-Key>
SFQWYSFWUCVTBE-UHFFFAOYSA-N

>  <Molecular Formula>
C11H13N4O2Cl

>  <Monoisotopic Mass>
268.072703

>  <Druglikeness>
-1.2942

$$$$
Compound 495
Actelion Java MolfileCreator 1.0

 25 27  0  0  0  0  0  0  0  0999 V2000
    0.0000   -0.0000   -0.0000 O   0  0  0  0  0  0  0  0  0  0  0  0
   -1.0813    0.6196   -0.0000 C   0  0  0  0  0  0  0  0  0  0  0  0
   -1.0934    2.1747   -0.0000 N   0  0  0  0  0  0  0  0  0  0  0  0
   -2.4298   -0.1458   -0.0000 C   0  0  0  0  0  0  0  0  0  0  0  0
    0.2308    2.9644   -0.0000 C   0  0  0  0  0  0  0  0  0  0  0  0
   -2.4420   -1.6766   -0.0000 C   0  0  0  0  0  0  0  0  0  0  0  0
   -3.7784    0.6318   -0.0000 C   0  0  0  0  0  0  0  0  0  0  0  0
    0.2187    4.5195   -0.0000 C   0  0  0  0  0  0  0  0  0  0  0  0
    1.2878    2.3691   -0.0000 C   0  0  0  0  0  0  0  0  0  0  0  0
   -3.7905   -2.4420   -0.0000 C   0  0  0  0  0  0  0  0  0  0  0  0
   -1.3850   -2.2840   -0.0000 C   0  0  0  0  0  0  0  0  0  0  0  0
   -5.1269   -0.1336   -0.0000 C   0  0  0  0  0  0  0  0  0  0  0  0
    1.5429    5.2970   -0.0000 C   0  0  0  0  0  0  0  0  0  0  0  0
   -1.1420    5.2970   -0.0000 C   0  0  0  0  0  0  0  0  0  0  0  0
   -5.1391   -1.6644   -0.0000 C   0  0  0  0  0  0  0  0  0  0  0  0
   -6.4755    0.6439   -0.0000 C   0  0  0  0  0  0  0  0  0  0  0  0
    1.5308    6.8521   -0.0000 C   0  0  0  0  0  0  0  0  0  0  0  0
    2.8672    4.5438   -0.0000 C   0  0  0  0  0  0  0  0  0  0  0  0
   -1.1542    6.8521   -0.0000 C   0  0  0  0  0  0  0  0  0  0  0  0
   -7.8240   -0.1215   -0.0000 N   0  0  0  0  0  0  0  0  0  0  0  0
    0.1822    7.6296   -0.0000 C   0  0  0  0  0  0  0  0  0  0  0  0
    2.8550    7.6296   -0.0000 C   0  0  0  0  0  0  0  0  0  0  0  0
    4.1914    5.3213   -0.0000 C   0  0  0  0  0  0  0  0  0  0  0  0
   -8.9053    0.4981   -0.0000 C   0  0  0  0  0  0  0  0  0  0  0  0
    4.1793    6.8764   -0.0000 C   0  0  0  0  0  0  0  0  0  0  0  0
  1  2  2  0  0  0  0
  2  3  1  0  0  0  0
  2  4  1  0  0  0  0
  5  3  1  6  0  0  0
  4  6  2  0  0  0  0
  4  7  1  0  0  0  0
  5  8  1  0  0  0  0
  5  9  1  0  0  0  0
  6 10  1  0  0  0  0
  6 11  1  0  0  0  0
  7 12  2  0  0  0  0
  8 13  1  0  0  0  0
  8 14  2  0  0  0  0
 10 15  2  0  0  0  0
 12 16  1  0  0  0  0
 13 17  1  0  0  0  0
 13 18  2  0  0  0  0
 14 19  1  0  0  0  0
 16 20  1  0  0  0  0
 17 21  1  0  0  0  0
 17 22  2  0  0  0  0
 18 23  1  0  0  0  0
 20 24  1  0  0  0  0
 22 25  1  0  0  0  0
 12 15  1  0  0  0  0
 19 21  2  0  0  0  0
 23 25  2  0  0  0  0
M  END
>  <MolRegNo>
565697

>  <m>
=

>  <Value>
5200

>  <Unit>
nM

>  <Type>
EC50

>  <Ligand Efficiency>


>  <Binding Efficiency>


>  <Surface Efficiency>


>  <Assay Index>
425462

>  <Assay Category>


>  <Assay Organism>
SARS coronavirus

>  <Target ID>
100499

>  <Target Name>
SARS coronavirus

>  <Target Organism>
SARS coronavirus

>  <Target Description>
Target is a complete organism

>  <Sequence Accession>


>  <Reference>
J. Med. Chem. 52 (16), 5228-5240 (2009)

>  <Pubmed ID>
19645480

>  <DOI>
10.1021/jm900611t

>  <InChI-Key>
SIBDAZDNSVDATL-INIZCTEOSA-N

>  <Molecular Formula>
C22H24N2O

>  <Monoisotopic Mass>
332.188863

>  <Druglikeness>
3.4788

$$$$
Compound 496
Actelion Java MolfileCreator 1.0

 19 20  0  0  0  0  0  0  0  0999 V2000
    0.0000   -0.0000   -0.0000 O   0  0  0  0  0  0  0  0  0  0  0  0
   -1.5027    0.0117   -0.0000 C   0  0  0  0  0  0  0  0  0  0  0  0
   -2.3949   -1.1974   -0.0000 N   0  0  0  0  0  0  0  0  0  0  0  0
   -2.3949    1.2444   -0.0000 C   0  0  0  0  0  0  0  0  0  0  0  0
   -3.8388   -0.7278   -0.0000 C   0  0  0  0  0  0  0  0  0  0  0  0
   -1.9488   -2.6062   -0.0000 C   0  0  0  0  0  0  0  0  0  0  0  0
   -1.9488    2.6766   -0.0000 O   0  0  0  0  0  0  0  0  0  0  0  0
   -3.8388    0.7865   -0.0000 C   0  0  0  0  0  0  0  0  0  0  0  0
   -5.1419   -1.4674   -0.0000 C   0  0  0  0  0  0  0  0  0  0  0  0
   -0.5048   -2.8997   -0.0000 C   0  0  0  0  0  0  0  0  0  0  0  0
   -5.1536    1.5379   -0.0000 C   0  0  0  0  0  0  0  0  0  0  0  0
   -6.4450   -0.7044   -0.0000 C   0  0  0  0  0  0  0  0  0  0  0  0
   -0.0587   -4.3084   -0.0000 C   0  0  0  0  0  0  0  0  0  0  0  0
   -6.4450    0.7983   -0.0000 C   0  0  0  0  0  0  0  0  0  0  0  0
    1.3853   -4.6019   -0.0000 C   0  0  0  0  0  0  0  0  0  0  0  0
   -7.7481    1.5496   -0.0000 C   0  0  0  0  0  0  0  0  0  0  0  0
   -7.7598    3.0523   -0.0000 O   0  0  0  0  0  0  0  0  0  0  0  0
   -9.0512    0.8100   -0.0000 O   0  0  0  0  0  0  0  0  0  0  0  0
  -10.3542    1.5614   -0.0000 C   0  0  0  0  0  0  0  0  0  0  0  0
  1  2  2  0  0  0  0
  2  3  1  0  0  0  0
  2  4  1  0  0  0  0
  3  5  1  0  0  0  0
  3  6  1  0  0  0  0
  4  7  2  0  0  0  0
  4  8  1  0  0  0  0
  5  9  1  0  0  0  0
  6 10  1  0  0  0  0
  8 11  1  0  0  0  0
  9 12  2  0  0  0  0
 10 13  1  0  0  0  0
 11 14  2  0  0  0  0
 13 15  1  0  0  0  0
 14 16  1  0  0  0  0
 16 17  2  0  0  0  0
 16 18  1  0  0  0  0
 18 19  1  0  0  0  0
  5  8  2  0  0  0  0
 12 14  1  0  0  0  0
M  END
>  <MolRegNo>
349172

>  <m>
<

>  <Value>
25

>  <Unit>
%

>  <Type>
Inhibition

>  <Ligand Efficiency>


>  <Binding Efficiency>


>  <Surface Efficiency>


>  <Assay Index>
262887

>  <Assay Category>


>  <Assay Organism>
SARS coronavirus

>  <Target ID>
20012

>  <Target Name>
SARS coronavirus 3C-like proteinase

>  <Target Organism>
SARS coronavirus

>  <Target Description>
Target is a single protein chain

>  <Sequence Accession>
P0C6U8

>  <Reference>
J. Med. Chem. 49 (12), 3440-3443 (2006)

>  <Pubmed ID>
16759084

>  <DOI>
10.1021/jm0602357

>  <InChI-Key>
SIONLJQSJGOTQF-UHFFFAOYSA-N

>  <Molecular Formula>
C14H15NO4

>  <Monoisotopic Mass>
261.100109

>  <Druglikeness>
-3.9747

$$$$
Compound 497
Actelion Java MolfileCreator 1.0

 24 26  0  0  0  0  0  0  0  0999 V2000
    0.0000   -0.0000   -0.0000 O   0  0  0  0  0  0  0  0  0  0  0  0
   -0.0118    1.5102   -0.0000 C   0  0  0  0  0  0  0  0  0  0  0  0
    1.2743    2.2654   -0.0000 C   0  0  0  0  0  0  0  0  0  0  0  0
   -1.3215    2.2654   -0.0000 C   0  0  0  0  0  0  0  0  0  0  0  0
    2.5603    1.5338   -0.0000 C   0  0  0  0  0  0  0  0  0  0  0  0
    1.2625    3.7756   -0.0000 C   0  0  0  0  0  0  0  0  0  0  0  0
   -1.3333    3.7756   -0.0000 C   0  0  0  0  0  0  0  0  0  0  0  0
    2.5485    0.0472   -0.0000 O   0  0  0  0  0  0  0  0  0  0  0  0
    3.8464    2.2890   -0.0000 C   0  0  0  0  0  0  0  0  0  0  0  0
   -0.0472    4.5307   -0.0000 O   0  0  0  0  0  0  0  0  0  0  0  0
    2.5485    4.5307   -0.0000 C   0  0  0  0  0  0  0  0  0  0  0  0
   -2.6429    4.5307   -0.0000 C   0  0  0  0  0  0  0  0  0  0  0  0
    5.1325    1.5574   -0.0000 O   0  0  0  0  0  0  0  0  0  0  0  0
    3.8346    3.7992   -0.0000 C   0  0  0  0  0  0  0  0  0  0  0  0
   -3.9526    3.7992   -0.0000 N   0  0  0  0  0  0  0  0  0  0  0  0
   -5.2623    4.5543   -0.0000 C   0  0  0  0  0  0  0  0  0  0  0  0
   -6.5719    3.8228   -0.0000 C   0  0  0  0  0  0  0  0  0  0  0  0
   -7.8816    4.5779   -0.0000 C   0  0  0  0  0  0  0  0  0  0  0  0
   -6.5837    2.3362   -0.0000 C   0  0  0  0  0  0  0  0  0  0  0  0
   -9.1913    3.8464   -0.0000 C   0  0  0  0  0  0  0  0  0  0  0  0
   -7.8934    1.6046   -0.0000 C   0  0  0  0  0  0  0  0  0  0  0  0
  -10.5009    4.6015   -0.0000 C   0  0  0  0  0  0  0  0  0  0  0  0
   -9.2031    2.3598   -0.0000 C   0  0  0  0  0  0  0  0  0  0  0  0
  -11.8106    5.3567   -0.0000 N   0  0  0  0  0  0  0  0  0  0  0  0
  1  2  2  0  0  0  0
  2  3  1  0  0  0  0
  2  4  1  0  0  0  0
  3  5  2  0  0  0  0
  3  6  1  0  0  0  0
  4  7  2  0  0  0  0
  5  8  1  0  0  0  0
  5  9  1  0  0  0  0
  6 10  1  0  0  0  0
  6 11  2  0  0  0  0
  7 12  1  0  0  0  0
  9 13  1  0  0  0  0
  9 14  2  0  0  0  0
 12 15  1  0  0  0  0
 15 16  1  0  0  0  0
 16 17  1  0  0  0  0
 17 18  2  0  0  0  0
 17 19  1  0  0  0  0
 18 20  1  0  0  0  0
 19 21  2  0  0  0  0
 20 22  1  0  0  0  0
 20 23  2  0  0  0  0
 22 24  3  0  0  0  0
  7 10  1  0  0  0  0
 11 14  1  0  0  0  0
 21 23  1  0  0  0  0
M  END
>  <MolRegNo>
558918

>  <m>
>

>  <Value>
50000

>  <Unit>
nM

>  <Type>
IC50

>  <Ligand Efficiency>


>  <Binding Efficiency>


>  <Surface Efficiency>


>  <Assay Index>
426933

>  <Assay Category>


>  <Assay Organism>
SARS coronavirus

>  <Target ID>
101075

>  <Target Name>
Replicase polyprotein 1ab

>  <Target Organism>
SARS coronavirus

>  <Target Description>
Target is a single protein chain

>  <Sequence Accession>
P0C6X7

>  <Reference>
Bioorg. Med. Chem. Lett. 19 (16), 4538-4541 (2009)

>  <Pubmed ID>
19625187

>  <DOI>
10.1016/j.bmcl.2009.07.009

>  <InChI-Key>
SJTMNPKKSBGJOA-UHFFFAOYSA-N

>  <Molecular Formula>
C18H14N2O4

>  <Monoisotopic Mass>
322.095358

>  <Druglikeness>
-2.9095

$$$$
Compound 498
Actelion Java MolfileCreator 1.0

 24 26  0  0  0  0  0  0  0  0999 V2000
    0.0000   -0.0000   -0.0000 O   0  0  0  0  0  0  0  0  0  0  0  0
   -0.0118    1.5102   -0.0000 C   0  0  0  0  0  0  0  0  0  0  0  0
    1.2743    2.2654   -0.0000 C   0  0  0  0  0  0  0  0  0  0  0  0
   -1.3215    2.2654   -0.0000 C   0  0  0  0  0  0  0  0  0  0  0  0
    2.5603    1.5338   -0.0000 C   0  0  0  0  0  0  0  0  0  0  0  0
    1.2625    3.7756   -0.0000 C   0  0  0  0  0  0  0  0  0  0  0  0
   -1.3333    3.7756   -0.0000 C   0  0  0  0  0  0  0  0  0  0  0  0
    2.5485    0.0472   -0.0000 O   0  0  0  0  0  0  0  0  0  0  0  0
    3.8464    2.2890   -0.0000 C   0  0  0  0  0  0  0  0  0  0  0  0
   -0.0472    4.5307   -0.0000 O   0  0  0  0  0  0  0  0  0  0  0  0
    2.5485    4.5307   -0.0000 C   0  0  0  0  0  0  0  0  0  0  0  0
   -2.6429    4.5307   -0.0000 C   0  0  0  0  0  0  0  0  0  0  0  0
    5.1325    1.5574   -0.0000 O   0  0  0  0  0  0  0  0  0  0  0  0
    3.8346    3.7992   -0.0000 C   0  0  0  0  0  0  0  0  0  0  0  0
   -3.9526    3.7992   -0.0000 N   0  0  0  0  0  0  0  0  0  0  0  0
   -5.2623    4.5543   -0.0000 C   0  0  0  0  0  0  0  0  0  0  0  0
   -6.5719    3.8228   -0.0000 C   0  0  0  0  0  0  0  0  0  0  0  0
   -7.8816    4.5779   -0.0000 C   0  0  0  0  0  0  0  0  0  0  0  0
   -6.5837    2.3362   -0.0000 C   0  0  0  0  0  0  0  0  0  0  0  0
   -9.1913    3.8464   -0.0000 C   0  0  0  0  0  0  0  0  0  0  0  0
   -7.8934    1.6046   -0.0000 C   0  0  0  0  0  0  0  0  0  0  0  0
  -10.5009    4.6015   -0.0000 C   0  0  0  0  0  0  0  0  0  0  0  0
   -9.2031    2.3598   -0.0000 C   0  0  0  0  0  0  0  0  0  0  0  0
  -11.8106    5.3567   -0.0000 N   0  0  0  0  0  0  0  0  0  0  0  0
  1  2  2  0  0  0  0
  2  3  1  0  0  0  0
  2  4  1  0  0  0  0
  3  5  2  0  0  0  0
  3  6  1  0  0  0  0
  4  7  2  0  0  0  0
  5  8  1  0  0  0  0
  5  9  1  0  0  0  0
  6 10  1  0  0  0  0
  6 11  2  0  0  0  0
  7 12  1  0  0  0  0
  9 13  1  0  0  0  0
  9 14  2  0  0  0  0
 12 15  1  0  0  0  0
 15 16  1  0  0  0  0
 16 17  1  0  0  0  0
 17 18  2  0  0  0  0
 17 19  1  0  0  0  0
 18 20  1  0  0  0  0
 19 21  2  0  0  0  0
 20 22  1  0  0  0  0
 20 23  2  0  0  0  0
 22 24  3  0  0  0  0
  7 10  1  0  0  0  0
 11 14  1  0  0  0  0
 21 23  1  0  0  0  0
M  END
>  <MolRegNo>
558918

>  <m>
>

>  <Value>
50000

>  <Unit>
nM

>  <Type>
IC50

>  <Ligand Efficiency>


>  <Binding Efficiency>


>  <Surface Efficiency>


>  <Assay Index>
426934

>  <Assay Category>


>  <Assay Organism>
SARS coronavirus

>  <Target ID>
101075

>  <Target Name>
Replicase polyprotein 1ab

>  <Target Organism>
SARS coronavirus

>  <Target Description>
Target is a single protein chain

>  <Sequence Accession>
P0C6X7

>  <Reference>
Bioorg. Med. Chem. Lett. 19 (16), 4538-4541 (2009)

>  <Pubmed ID>
19625187

>  <DOI>
10.1016/j.bmcl.2009.07.009

>  <InChI-Key>
SJTMNPKKSBGJOA-UHFFFAOYSA-N

>  <Molecular Formula>
C18H14N2O4

>  <Monoisotopic Mass>
322.095358

>  <Druglikeness>
-2.9095

$$$$
Compound 499
Actelion Java MolfileCreator 1.0

 35 39  0  0  0  0  0  0  0  0999 V2000
    0.0000   -0.0000   -0.0000 O   0  0  0  0  0  0  0  0  0  0  0  0
   -1.1834    0.3864   -0.0000 C   0  0  0  0  0  0  0  0  0  0  0  0
   -2.4392   -0.5072   -0.0000 N   0  0  0  0  0  0  0  0  0  0  0  0
   -1.6784    1.8354   -0.0000 C   0  0  0  0  0  0  0  0  0  0  0  0
   -3.6950    0.4106   -0.0000 N   0  0  0  0  0  0  0  0  0  0  0  0
   -2.4512   -2.0286   -0.0000 C   0  0  0  0  0  0  0  0  0  0  0  0
   -3.2120    1.8596   -0.0000 C   0  0  0  0  0  0  0  0  0  0  0  0
   -0.7970    3.0912   -0.0000 C   0  0  0  0  0  0  0  0  0  0  0  0
   -1.1954   -2.8739   -0.0000 C   0  0  0  0  0  0  0  0  0  0  0  0
   -3.8519   -2.6807   -0.0000 C   0  0  0  0  0  0  0  0  0  0  0  0
   -4.1176    3.1154   -0.0000 C   0  0  0  0  0  0  0  0  0  0  0  0
    0.7124    2.9463   -0.0000 C   0  0  0  0  0  0  0  0  0  0  0  0
   -1.3162   -4.3953   -0.0000 C   0  0  0  0  0  0  0  0  0  0  0  0
   -3.9727   -4.2021   -0.0000 C   0  0  0  0  0  0  0  0  0  0  0  0
   -3.6104    4.5644   -0.0000 C   0  0  0  0  0  0  0  0  0  0  0  0
   -5.6390    2.8497   -0.0000 C   0  0  0  0  0  0  0  0  0  0  0  0
    1.7267    4.0934   -0.0000 O   0  0  0  0  0  0  0  0  0  0  0  0
    1.4732    1.6301   -0.0000 C   0  0  0  0  0  0  0  0  0  0  0  0
   -2.7048   -5.0474   -0.0000 C   0  0  0  0  0  0  0  0  0  0  0  0
   -4.6127    5.7477   -0.0000 C   0  0  0  0  0  0  0  0  0  0  0  0
   -6.6413    4.0331   -0.0000 C   0  0  0  0  0  0  0  0  0  0  0  0
    3.0912    3.4776   -0.0000 C   0  0  0  0  0  0  0  0  0  0  0  0
    2.9584    1.9682   -0.0000 C   0  0  0  0  0  0  0  0  0  0  0  0
   -2.8376   -6.5688   -0.0000 O   0  0  0  0  0  0  0  0  0  0  0  0
   -6.1341    5.4821   -0.0000 C   0  0  0  0  0  0  0  0  0  0  0  0
    4.4074    4.2504   -0.0000 C   0  0  0  0  0  0  0  0  0  0  0  0
   -3.9606   -7.0880   -0.0000 C   0  0  0  0  0  0  0  0  0  0  0  0
    5.7236    3.5018   -0.0000 C   0  0  0  0  0  0  0  0  0  0  0  0
    4.3953    5.7960   -0.0000 C   0  0  0  0  0  0  0  0  0  0  0  0
    5.7115    1.9803   -0.0000 C   0  0  0  0  0  0  0  0  0  0  0  0
    7.0397    4.2746   -0.0000 C   0  0  0  0  0  0  0  0  0  0  0  0
    5.7115    6.5688   -0.0000 C   0  0  0  0  0  0  0  0  0  0  0  0
    6.7620    1.3766   -0.0000 O   0  0  0  0  0  0  0  0  0  0  0  0
    4.6368    1.3766   -0.0000 O   0  0  0  0  0  0  0  0  0  0  0  0
    7.0277    5.8202   -0.0000 C   0  0  0  0  0  0  0  0  0  0  0  0
  1  2  2  0  0  0  0
  2  3  1  0  0  0  0
  2  4  1  0  0  0  0
  3  5  1  0  0  0  0
  3  6  1  0  0  0  0
  4  7  1  0  0  0  0
  4  8  2  0  0  0  0
  6  9  2  0  0  0  0
  6 10  1  0  0  0  0
  7 11  1  0  0  0  0
  8 12  1  0  0  0  0
  9 13  1  0  0  0  0
 10 14  2  0  0  0  0
 11 15  2  0  0  0  0
 11 16  1  0  0  0  0
 12 17  1  0  0  0  0
 12 18  2  0  0  0  0
 13 19  2  0  0  0  0
 15 20  1  0  0  0  0
 16 21  2  0  0  0  0
 17 22  1  0  0  0  0
 18 23  1  0  0  0  0
 19 24  1  0  0  0  0
 20 25  2  0  0  0  0
 22 26  1  0  0  0  0
 24 27  1  0  0  0  0
 26 28  2  0  0  0  0
 26 29  1  0  0  0  0
 28 30  1  0  0  0  0
 28 31  1  0  0  0  0
 29 32  2  0  0  0  0
 30 33  2  0  0  0  0
 30 34  1  0  0  0  0
 31 35  2  0  0  0  0
  5  7  2  0  0  0  0
 14 19  1  0  0  0  0
 21 25  1  0  0  0  0
 22 23  2  0  0  0  0
 32 35  1  0  0  0  0
M  END
>  <MolRegNo>
2087681

>  <m>
=

>  <Value>
30700

>  <Unit>
nM

>  <Type>
IC50

>  <Ligand Efficiency>
0.18

>  <Binding Efficiency>
9.72

>  <Surface Efficiency>
4.89

>  <Assay Index>
1017144

>  <Assay Category>


>  <Assay Organism>
SARS coronavirus

>  <Target ID>
101075

>  <Target Name>
Replicase polyprotein 1ab

>  <Target Organism>
SARS coronavirus

>  <Target Description>
Target is a single protein chain

>  <Sequence Accession>
P0C6X7

>  <Reference>
Bioorg. Med. Chem. 24 (13), 3035-3042 (2016)

>  <Pubmed ID>
27240464

>  <DOI>
10.1016/j.bmc.2016.05.013

>  <InChI-Key>
SKEVDQNJWPPYIJ-UHFFFAOYSA-N

>  <Molecular Formula>
C28H20N2O5

>  <Monoisotopic Mass>
464.137223

>  <Druglikeness>
5.0241

$$$$
Compound 500
Actelion Java MolfileCreator 1.0

 15 16  0  0  0  0  0  0  0  0999 V2000
    0.0000   -0.0000   -0.0000 Cl  0  0  0  0  0  0  0  0  0  0  0  0
   -1.3040   -0.7350   -0.0000 C   0  0  0  0  0  0  0  0  0  0  0  0
   -1.3159   -2.2287   -0.0000 C   0  0  0  0  0  0  0  0  0  0  0  0
   -2.6080    0.0237   -0.0000 C   0  0  0  0  0  0  0  0  0  0  0  0
   -2.6317   -2.9636   -0.0000 N   0  0  0  0  0  0  0  0  0  0  0  0
   -3.9120   -0.7113   -0.0000 C   0  0  0  0  0  0  0  0  0  0  0  0
   -3.9357   -2.2050   -0.0000 C   0  0  0  0  0  0  0  0  0  0  0  0
   -5.2160    0.0474   -0.0000 O   0  0  0  0  0  0  0  0  0  0  0  0
   -6.5200   -0.6876   -0.0000 C   0  0  0  0  0  0  0  0  0  0  0  0
   -6.5319   -2.1694   -0.0000 O   0  0  0  0  0  0  0  0  0  0  0  0
   -7.8240    0.0711   -0.0000 C   0  0  0  0  0  0  0  0  0  0  0  0
   -9.1992   -0.5216   -0.0000 N   0  0  0  0  0  0  0  0  0  0  0  0
   -7.9900    1.5648   -0.0000 C   0  0  0  0  0  0  0  0  0  0  0  0
  -10.2068    0.6046   -0.0000 C   0  0  0  0  0  0  0  0  0  0  0  0
   -9.4600    1.8849   -0.0000 C   0  0  0  0  0  0  0  0  0  0  0  0
  1  2  1  0  0  0  0
  2  3  2  0  0  0  0
  2  4  1  0  0  0  0
  3  5  1  0  0  0  0
  4  6  2  0  0  0  0
  5  7  2  0  0  0  0
  6  8  1  0  0  0  0
  8  9  1  0  0  0  0
  9 10  2  0  0  0  0
  9 11  1  0  0  0  0
 11 12  1  0  0  0  0
 11 13  2  0  0  0  0
 12 14  1  0  0  0  0
 13 15  1  0  0  0  0
  6  7  1  0  0  0  0
 14 15  2  0  0  0  0
M  END
>  <MolRegNo>
371858

>  <m>
=

>  <Value>
65

>  <Unit>
%

>  <Type>
Inhibition

>  <Ligand Efficiency>


>  <Binding Efficiency>


>  <Surface Efficiency>


>  <Assay Index>
278390

>  <Assay Category>


>  <Assay Organism>
SARS coronavirus

>  <Target ID>
20012

>  <Target Name>
SARS coronavirus 3C-like proteinase

>  <Target Organism>
SARS coronavirus

>  <Target Description>
Target is a single protein chain

>  <Sequence Accession>
P0C6U8

>  <Reference>
J. Med. Chem. 50 (8), 1850-1864 (2007)

>  <Pubmed ID>
17381079

>  <DOI>
10.1021/jm061425k

>  <InChI-Key>
SLAORNCHZXPTDC-UHFFFAOYSA-N

>  <Molecular Formula>
C10H7N2O2Cl

>  <Monoisotopic Mass>
222.019605

>  <Druglikeness>
1.0504

$$$$
Compound 501
Actelion Java MolfileCreator 1.0

 33 37  0  0  1  0  0  0  0  0999 V2000
    0.0000   -0.0000   -0.0000 O   0  0  0  0  0  0  0  0  0  0  0  0
    1.4937    0.0356   -0.0000 C   0  0  0  0  0  0  0  0  0  0  0  0
    2.2524   -1.2448   -0.0000 C   0  0  0  0  0  0  0  0  0  0  0  0
    2.2169    1.3633   -0.0000 C   0  0  0  0  0  0  0  0  0  0  0  0
    3.7461   -1.2092   -0.0000 C   0  0  0  0  0  0  0  0  0  0  0  0
    2.2050   -2.7385   -0.0000 C   0  0  0  0  0  0  0  0  0  0  0  0
    0.9721   -2.0509   -0.0000 C   0  0  0  0  0  0  0  0  0  0  0  0
    3.7106    1.3989   -0.0000 C   0  0  0  0  0  0  0  0  0  0  0  0
    4.4693    0.1185   -0.0000 C   0  0  0  0  0  0  0  0  0  0  0  0
    4.5048   -2.4895   -0.0000 C   0  0  0  0  0  0  0  0  0  0  0  0
    5.9630    0.1541   -0.0000 C   0  0  0  0  0  0  0  0  0  0  0  0
    5.1924    1.4463   -0.0000 C   0  0  0  0  0  0  0  0  0  0  0  0
    5.9985   -2.4539   -0.0000 C   0  0  0  0  0  0  0  0  0  0  0  0
    6.7217   -1.1262   -0.0000 C   0  0  0  0  0  0  0  0  0  0  0  0
    6.6861    1.4819   -0.0000 C   0  0  0  0  0  0  0  0  0  0  0  0
    8.2154   -1.0906   -0.0000 C   0  0  0  0  0  0  0  0  0  0  0  0
    6.5794   -2.6199   -0.0000 C   0  0  0  0  0  0  0  0  0  0  0  0
    8.1798    1.5174   -0.0000 C   0  0  0  0  0  0  0  0  0  0  0  0
    8.9385    0.2371   -0.0000 C   0  0  0  0  0  0  0  0  0  0  0  0
    8.9741   -2.3710   -0.0000 C   0  0  0  0  0  0  0  0  0  0  0  0
    7.4685   -2.3947   -0.0000 C   0  0  0  0  0  0  0  0  0  0  0  0
   10.4322    0.2727   -0.0000 C   0  0  0  0  0  0  0  0  0  0  0  0
   10.4678   -2.3354   -0.0000 C   0  0  0  0  0  0  0  0  0  0  0  0
   11.1909   -1.0077   -0.0000 C   0  0  0  0  0  0  0  0  0  0  0  0
   11.4162    1.4226   -0.0000 C   0  0  0  0  0  0  0  0  0  0  0  0
   12.0801   -2.2050   -0.0000 C   0  0  0  0  0  0  0  0  0  0  0  0
   12.6491   -0.6639   -0.0000 C   0  0  0  0  0  0  0  0  0  0  0  0
   11.0724    2.9044   -0.0000 C   0  0  0  0  0  0  0  0  0  0  0  0
   12.7913    0.8417   -0.0000 C   0  0  0  0  0  0  0  0  0  0  0  0
   13.5619   -2.0153   -0.0000 O   0  0  0  0  0  0  0  0  0  0  0  0
   11.4755   -3.5802   -0.0000 O   0  0  0  0  0  0  0  0  0  0  0  0
   12.1630    3.9358   -0.0000 C   0  0  0  0  0  0  0  0  0  0  0  0
    9.6261    3.3549   -0.0000 C   0  0  0  0  0  0  0  0  0  0  0  0
  1  2  2  0  0  0  0
  2  3  1  0  0  0  0
  2  4  1  0  0  0  0
  3  5  1  0  0  0  0
  3  6  1  0  0  0  0
  3  7  1  0  0  0  0
  4  8  1  0  0  0  0
  5  9  1  0  0  0  0
  5 10  1  1  0  0  0
  9 11  1  0  0  0  0
  9 12  1  1  0  0  0
 10 13  1  0  0  0  0
 11 14  1  0  0  0  0
 11 15  1  1  0  0  0
 14 16  1  0  0  0  0
 14 17  1  1  0  0  0
 15 18  1  0  0  0  0
 16 19  1  0  0  0  0
 16 20  1  0  0  0  0
 16 21  1  6  0  0  0
 22 19  1  1  0  0  0
 20 23  1  0  0  0  0
 22 24  1  0  0  0  0
 22 25  1  0  0  0  0
 24 26  1  1  0  0  0
 24 27  1  0  0  0  0
 25 28  1  6  0  0  0
 25 29  1  0  0  0  0
 26 30  2  0  0  0  0
 26 31  1  0  0  0  0
 28 32  2  0  0  0  0
 28 33  1  0  0  0  0
  8  9  1  0  0  0  0
 13 14  1  0  0  0  0
 19 18  1  6  0  0  0
 23 24  1  0  0  0  0
 27 29  1  0  0  0  0
M  END
>  <MolRegNo>
71232

>  <m>
=

>  <Value>
630

>  <Unit>
nM

>  <Type>
EC50

>  <Ligand Efficiency>


>  <Binding Efficiency>


>  <Surface Efficiency>


>  <Assay Index>
294026

>  <Assay Category>


>  <Assay Organism>
SARS coronavirus

>  <Target ID>
100499

>  <Target Name>
SARS coronavirus

>  <Target Organism>
SARS coronavirus

>  <Target Description>
Target is a complete organism

>  <Sequence Accession>


>  <Reference>
J. Med. Chem. 50 (17), 4087-4095 (2007)

>  <Pubmed ID>
17663539

>  <DOI>
10.1021/jm070295s

>  <InChI-Key>
SLJTWDNVZKIDAU-CKURCAGRSA-N

>  <Molecular Formula>
C30H46O3

>  <Monoisotopic Mass>
454.344695

>  <Druglikeness>
-23.657

$$$$
Compound 502
Actelion Java MolfileCreator 1.0

 33 37  0  0  1  0  0  0  0  0999 V2000
    0.0000   -0.0000   -0.0000 O   0  0  0  0  0  0  0  0  0  0  0  0
    1.4937    0.0356   -0.0000 C   0  0  0  0  0  0  0  0  0  0  0  0
    2.2524   -1.2448   -0.0000 C   0  0  0  0  0  0  0  0  0  0  0  0
    2.2169    1.3633   -0.0000 C   0  0  0  0  0  0  0  0  0  0  0  0
    3.7461   -1.2092   -0.0000 C   0  0  0  0  0  0  0  0  0  0  0  0
    2.2050   -2.7385   -0.0000 C   0  0  0  0  0  0  0  0  0  0  0  0
    0.9721   -2.0509   -0.0000 C   0  0  0  0  0  0  0  0  0  0  0  0
    3.7106    1.3989   -0.0000 C   0  0  0  0  0  0  0  0  0  0  0  0
    4.4693    0.1185   -0.0000 C   0  0  0  0  0  0  0  0  0  0  0  0
    4.5048   -2.4895   -0.0000 C   0  0  0  0  0  0  0  0  0  0  0  0
    5.9630    0.1541   -0.0000 C   0  0  0  0  0  0  0  0  0  0  0  0
    5.1924    1.4463   -0.0000 C   0  0  0  0  0  0  0  0  0  0  0  0
    5.9985   -2.4539   -0.0000 C   0  0  0  0  0  0  0  0  0  0  0  0
    6.7217   -1.1262   -0.0000 C   0  0  0  0  0  0  0  0  0  0  0  0
    6.6861    1.4819   -0.0000 C   0  0  0  0  0  0  0  0  0  0  0  0
    8.2154   -1.0906   -0.0000 C   0  0  0  0  0  0  0  0  0  0  0  0
    6.5794   -2.6199   -0.0000 C   0  0  0  0  0  0  0  0  0  0  0  0
    8.1798    1.5174   -0.0000 C   0  0  0  0  0  0  0  0  0  0  0  0
    8.9385    0.2371   -0.0000 C   0  0  0  0  0  0  0  0  0  0  0  0
    8.9741   -2.3710   -0.0000 C   0  0  0  0  0  0  0  0  0  0  0  0
    7.4685   -2.3947   -0.0000 C   0  0  0  0  0  0  0  0  0  0  0  0
   10.4322    0.2727   -0.0000 C   0  0  0  0  0  0  0  0  0  0  0  0
   10.4678   -2.3354   -0.0000 C   0  0  0  0  0  0  0  0  0  0  0  0
   11.1909   -1.0077   -0.0000 C   0  0  0  0  0  0  0  0  0  0  0  0
   11.4162    1.4226   -0.0000 C   0  0  0  0  0  0  0  0  0  0  0  0
   12.0801   -2.2050   -0.0000 C   0  0  0  0  0  0  0  0  0  0  0  0
   12.6491   -0.6639   -0.0000 C   0  0  0  0  0  0  0  0  0  0  0  0
   11.0724    2.9044   -0.0000 C   0  0  0  0  0  0  0  0  0  0  0  0
   12.7913    0.8417   -0.0000 C   0  0  0  0  0  0  0  0  0  0  0  0
   13.5619   -2.0153   -0.0000 O   0  0  0  0  0  0  0  0  0  0  0  0
   11.4755   -3.5802   -0.0000 O   0  0  0  0  0  0  0  0  0  0  0  0
   12.1630    3.9358   -0.0000 C   0  0  0  0  0  0  0  0  0  0  0  0
    9.6261    3.3549   -0.0000 C   0  0  0  0  0  0  0  0  0  0  0  0
  1  2  2  0  0  0  0
  2  3  1  0  0  0  0
  2  4  1  0  0  0  0
  3  5  1  0  0  0  0
  3  6  1  0  0  0  0
  3  7  1  0  0  0  0
  4  8  1  0  0  0  0
  5  9  1  0  0  0  0
  5 10  1  1  0  0  0
  9 11  1  0  0  0  0
  9 12  1  1  0  0  0
 10 13  1  0  0  0  0
 11 14  1  0  0  0  0
 11 15  1  1  0  0  0
 14 16  1  0  0  0  0
 14 17  1  1  0  0  0
 15 18  1  0  0  0  0
 16 19  1  0  0  0  0
 16 20  1  0  0  0  0
 16 21  1  6  0  0  0
 22 19  1  1  0  0  0
 20 23  1  0  0  0  0
 22 24  1  0  0  0  0
 22 25  1  0  0  0  0
 24 26  1  1  0  0  0
 24 27  1  0  0  0  0
 25 28  1  6  0  0  0
 25 29  1  0  0  0  0
 26 30  2  0  0  0  0
 26 31  1  0  0  0  0
 28 32  2  0  0  0  0
 28 33  1  0  0  0  0
  8  9  1  0  0  0  0
 13 14  1  0  0  0  0
 19 18  1  6  0  0  0
 23 24  1  0  0  0  0
 27 29  1  0  0  0  0
M  END
>  <MolRegNo>
71232

>  <m>
<

>  <Value>
25

>  <Unit>
%

>  <Type>
Inhibition

>  <Ligand Efficiency>


>  <Binding Efficiency>


>  <Surface Efficiency>


>  <Assay Index>
294022

>  <Assay Category>


>  <Assay Organism>
SARS coronavirus

>  <Target ID>
100499

>  <Target Name>
SARS coronavirus

>  <Target Organism>
SARS coronavirus

>  <Target Description>
Target is a complete organism

>  <Sequence Accession>


>  <Reference>
J. Med. Chem. 50 (17), 4087-4095 (2007)

>  <Pubmed ID>
17663539

>  <DOI>
10.1021/jm070295s

>  <InChI-Key>
SLJTWDNVZKIDAU-CKURCAGRSA-N

>  <Molecular Formula>
C30H46O3

>  <Monoisotopic Mass>
454.344695

>  <Druglikeness>
-23.657

$$$$
Compound 503
Actelion Java MolfileCreator 1.0

 33 37  0  0  1  0  0  0  0  0999 V2000
    0.0000   -0.0000   -0.0000 O   0  0  0  0  0  0  0  0  0  0  0  0
    1.4937    0.0356   -0.0000 C   0  0  0  0  0  0  0  0  0  0  0  0
    2.2524   -1.2448   -0.0000 C   0  0  0  0  0  0  0  0  0  0  0  0
    2.2169    1.3633   -0.0000 C   0  0  0  0  0  0  0  0  0  0  0  0
    3.7461   -1.2092   -0.0000 C   0  0  0  0  0  0  0  0  0  0  0  0
    2.2050   -2.7385   -0.0000 C   0  0  0  0  0  0  0  0  0  0  0  0
    0.9721   -2.0509   -0.0000 C   0  0  0  0  0  0  0  0  0  0  0  0
    3.7106    1.3989   -0.0000 C   0  0  0  0  0  0  0  0  0  0  0  0
    4.4693    0.1185   -0.0000 C   0  0  0  0  0  0  0  0  0  0  0  0
    4.5048   -2.4895   -0.0000 C   0  0  0  0  0  0  0  0  0  0  0  0
    5.9630    0.1541   -0.0000 C   0  0  0  0  0  0  0  0  0  0  0  0
    5.1924    1.4463   -0.0000 C   0  0  0  0  0  0  0  0  0  0  0  0
    5.9985   -2.4539   -0.0000 C   0  0  0  0  0  0  0  0  0  0  0  0
    6.7217   -1.1262   -0.0000 C   0  0  0  0  0  0  0  0  0  0  0  0
    6.6861    1.4819   -0.0000 C   0  0  0  0  0  0  0  0  0  0  0  0
    8.2154   -1.0906   -0.0000 C   0  0  0  0  0  0  0  0  0  0  0  0
    6.5794   -2.6199   -0.0000 C   0  0  0  0  0  0  0  0  0  0  0  0
    8.1798    1.5174   -0.0000 C   0  0  0  0  0  0  0  0  0  0  0  0
    8.9385    0.2371   -0.0000 C   0  0  0  0  0  0  0  0  0  0  0  0
    8.9741   -2.3710   -0.0000 C   0  0  0  0  0  0  0  0  0  0  0  0
    7.4685   -2.3947   -0.0000 C   0  0  0  0  0  0  0  0  0  0  0  0
   10.4322    0.2727   -0.0000 C   0  0  0  0  0  0  0  0  0  0  0  0
   10.4678   -2.3354   -0.0000 C   0  0  0  0  0  0  0  0  0  0  0  0
   11.1909   -1.0077   -0.0000 C   0  0  0  0  0  0  0  0  0  0  0  0
   11.4162    1.4226   -0.0000 C   0  0  0  0  0  0  0  0  0  0  0  0
   12.0801   -2.2050   -0.0000 C   0  0  0  0  0  0  0  0  0  0  0  0
   12.6491   -0.6639   -0.0000 C   0  0  0  0  0  0  0  0  0  0  0  0
   11.0724    2.9044   -0.0000 C   0  0  0  0  0  0  0  0  0  0  0  0
   12.7913    0.8417   -0.0000 C   0  0  0  0  0  0  0  0  0  0  0  0
   13.5619   -2.0153   -0.0000 O   0  0  0  0  0  0  0  0  0  0  0  0
   11.4755   -3.5802   -0.0000 O   0  0  0  0  0  0  0  0  0  0  0  0
   12.1630    3.9358   -0.0000 C   0  0  0  0  0  0  0  0  0  0  0  0
    9.6261    3.3549   -0.0000 C   0  0  0  0  0  0  0  0  0  0  0  0
  1  2  2  0  0  0  0
  2  3  1  0  0  0  0
  2  4  1  0  0  0  0
  3  5  1  0  0  0  0
  3  6  1  0  0  0  0
  3  7  1  0  0  0  0
  4  8  1  0  0  0  0
  5  9  1  0  0  0  0
  5 10  1  1  0  0  0
  9 11  1  0  0  0  0
  9 12  1  1  0  0  0
 10 13  1  0  0  0  0
 11 14  1  0  0  0  0
 11 15  1  1  0  0  0
 14 16  1  0  0  0  0
 14 17  1  1  0  0  0
 15 18  1  0  0  0  0
 16 19  1  0  0  0  0
 16 20  1  0  0  0  0
 16 21  1  6  0  0  0
 22 19  1  1  0  0  0
 20 23  1  0  0  0  0
 22 24  1  0  0  0  0
 22 25  1  0  0  0  0
 24 26  1  1  0  0  0
 24 27  1  0  0  0  0
 25 28  1  6  0  0  0
 25 29  1  0  0  0  0
 26 30  2  0  0  0  0
 26 31  1  0  0  0  0
 28 32  2  0  0  0  0
 28 33  1  0  0  0  0
  8  9  1  0  0  0  0
 13 14  1  0  0  0  0
 19 18  1  6  0  0  0
 23 24  1  0  0  0  0
 27 29  1  0  0  0  0
M  END
>  <MolRegNo>
71232

>  <m>
<

>  <Value>
25

>  <Unit>
%

>  <Type>
Inhibition

>  <Ligand Efficiency>


>  <Binding Efficiency>


>  <Surface Efficiency>


>  <Assay Index>
294023

>  <Assay Category>


>  <Assay Organism>
SARS coronavirus

>  <Target ID>
100499

>  <Target Name>
SARS coronavirus

>  <Target Organism>
SARS coronavirus

>  <Target Description>
Target is a complete organism

>  <Sequence Accession>


>  <Reference>
J. Med. Chem. 50 (17), 4087-4095 (2007)

>  <Pubmed ID>
17663539

>  <DOI>
10.1021/jm070295s

>  <InChI-Key>
SLJTWDNVZKIDAU-CKURCAGRSA-N

>  <Molecular Formula>
C30H46O3

>  <Monoisotopic Mass>
454.344695

>  <Druglikeness>
-23.657

$$$$
Compound 504
Actelion Java MolfileCreator 1.0

 33 37  0  0  1  0  0  0  0  0999 V2000
    0.0000   -0.0000   -0.0000 O   0  0  0  0  0  0  0  0  0  0  0  0
    1.4937    0.0356   -0.0000 C   0  0  0  0  0  0  0  0  0  0  0  0
    2.2524   -1.2448   -0.0000 C   0  0  0  0  0  0  0  0  0  0  0  0
    2.2169    1.3633   -0.0000 C   0  0  0  0  0  0  0  0  0  0  0  0
    3.7461   -1.2092   -0.0000 C   0  0  0  0  0  0  0  0  0  0  0  0
    2.2050   -2.7385   -0.0000 C   0  0  0  0  0  0  0  0  0  0  0  0
    0.9721   -2.0509   -0.0000 C   0  0  0  0  0  0  0  0  0  0  0  0
    3.7106    1.3989   -0.0000 C   0  0  0  0  0  0  0  0  0  0  0  0
    4.4693    0.1185   -0.0000 C   0  0  0  0  0  0  0  0  0  0  0  0
    4.5048   -2.4895   -0.0000 C   0  0  0  0  0  0  0  0  0  0  0  0
    5.9630    0.1541   -0.0000 C   0  0  0  0  0  0  0  0  0  0  0  0
    5.1924    1.4463   -0.0000 C   0  0  0  0  0  0  0  0  0  0  0  0
    5.9985   -2.4539   -0.0000 C   0  0  0  0  0  0  0  0  0  0  0  0
    6.7217   -1.1262   -0.0000 C   0  0  0  0  0  0  0  0  0  0  0  0
    6.6861    1.4819   -0.0000 C   0  0  0  0  0  0  0  0  0  0  0  0
    8.2154   -1.0906   -0.0000 C   0  0  0  0  0  0  0  0  0  0  0  0
    6.5794   -2.6199   -0.0000 C   0  0  0  0  0  0  0  0  0  0  0  0
    8.1798    1.5174   -0.0000 C   0  0  0  0  0  0  0  0  0  0  0  0
    8.9385    0.2371   -0.0000 C   0  0  0  0  0  0  0  0  0  0  0  0
    8.9741   -2.3710   -0.0000 C   0  0  0  0  0  0  0  0  0  0  0  0
    7.4685   -2.3947   -0.0000 C   0  0  0  0  0  0  0  0  0  0  0  0
   10.4322    0.2727   -0.0000 C   0  0  0  0  0  0  0  0  0  0  0  0
   10.4678   -2.3354   -0.0000 C   0  0  0  0  0  0  0  0  0  0  0  0
   11.1909   -1.0077   -0.0000 C   0  0  0  0  0  0  0  0  0  0  0  0
   11.4162    1.4226   -0.0000 C   0  0  0  0  0  0  0  0  0  0  0  0
   12.0801   -2.2050   -0.0000 C   0  0  0  0  0  0  0  0  0  0  0  0
   12.6491   -0.6639   -0.0000 C   0  0  0  0  0  0  0  0  0  0  0  0
   11.0724    2.9044   -0.0000 C   0  0  0  0  0  0  0  0  0  0  0  0
   12.7913    0.8417   -0.0000 C   0  0  0  0  0  0  0  0  0  0  0  0
   13.5619   -2.0153   -0.0000 O   0  0  0  0  0  0  0  0  0  0  0  0
   11.4755   -3.5802   -0.0000 O   0  0  0  0  0  0  0  0  0  0  0  0
   12.1630    3.9358   -0.0000 C   0  0  0  0  0  0  0  0  0  0  0  0
    9.6261    3.3549   -0.0000 C   0  0  0  0  0  0  0  0  0  0  0  0
  1  2  2  0  0  0  0
  2  3  1  0  0  0  0
  2  4  1  0  0  0  0
  3  5  1  0  0  0  0
  3  6  1  0  0  0  0
  3  7  1  0  0  0  0
  4  8  1  0  0  0  0
  5  9  1  0  0  0  0
  5 10  1  1  0  0  0
  9 11  1  0  0  0  0
  9 12  1  1  0  0  0
 10 13  1  0  0  0  0
 11 14  1  0  0  0  0
 11 15  1  1  0  0  0
 14 16  1  0  0  0  0
 14 17  1  1  0  0  0
 15 18  1  0  0  0  0
 16 19  1  0  0  0  0
 16 20  1  0  0  0  0
 16 21  1  6  0  0  0
 22 19  1  1  0  0  0
 20 23  1  0  0  0  0
 22 24  1  0  0  0  0
 22 25  1  0  0  0  0
 24 26  1  1  0  0  0
 24 27  1  0  0  0  0
 25 28  1  6  0  0  0
 25 29  1  0  0  0  0
 26 30  2  0  0  0  0
 26 31  1  0  0  0  0
 28 32  2  0  0  0  0
 28 33  1  0  0  0  0
  8  9  1  0  0  0  0
 13 14  1  0  0  0  0
 19 18  1  6  0  0  0
 23 24  1  0  0  0  0
 27 29  1  0  0  0  0
M  END
>  <MolRegNo>
71232

>  <m>


>  <Value>
0

>  <Unit>


>  <Type>
Inhibition

>  <Ligand Efficiency>


>  <Binding Efficiency>


>  <Surface Efficiency>


>  <Assay Index>
294025

>  <Assay Category>


>  <Assay Organism>
SARS coronavirus

>  <Target ID>
100499

>  <Target Name>
SARS coronavirus

>  <Target Organism>
SARS coronavirus

>  <Target Description>
Target is a complete organism

>  <Sequence Accession>


>  <Reference>
J. Med. Chem. 50 (17), 4087-4095 (2007)

>  <Pubmed ID>
17663539

>  <DOI>
10.1021/jm070295s

>  <InChI-Key>
SLJTWDNVZKIDAU-CKURCAGRSA-N

>  <Molecular Formula>
C30H46O3

>  <Monoisotopic Mass>
454.344695

>  <Druglikeness>
-23.657

$$$$
Compound 505
Actelion Java MolfileCreator 1.0

 33 37  0  0  1  0  0  0  0  0999 V2000
    0.0000   -0.0000   -0.0000 O   0  0  0  0  0  0  0  0  0  0  0  0
    1.4937    0.0356   -0.0000 C   0  0  0  0  0  0  0  0  0  0  0  0
    2.2524   -1.2448   -0.0000 C   0  0  0  0  0  0  0  0  0  0  0  0
    2.2169    1.3633   -0.0000 C   0  0  0  0  0  0  0  0  0  0  0  0
    3.7461   -1.2092   -0.0000 C   0  0  0  0  0  0  0  0  0  0  0  0
    2.2050   -2.7385   -0.0000 C   0  0  0  0  0  0  0  0  0  0  0  0
    0.9721   -2.0509   -0.0000 C   0  0  0  0  0  0  0  0  0  0  0  0
    3.7106    1.3989   -0.0000 C   0  0  0  0  0  0  0  0  0  0  0  0
    4.4693    0.1185   -0.0000 C   0  0  0  0  0  0  0  0  0  0  0  0
    4.5048   -2.4895   -0.0000 C   0  0  0  0  0  0  0  0  0  0  0  0
    5.9630    0.1541   -0.0000 C   0  0  0  0  0  0  0  0  0  0  0  0
    5.1924    1.4463   -0.0000 C   0  0  0  0  0  0  0  0  0  0  0  0
    5.9985   -2.4539   -0.0000 C   0  0  0  0  0  0  0  0  0  0  0  0
    6.7217   -1.1262   -0.0000 C   0  0  0  0  0  0  0  0  0  0  0  0
    6.6861    1.4819   -0.0000 C   0  0  0  0  0  0  0  0  0  0  0  0
    8.2154   -1.0906   -0.0000 C   0  0  0  0  0  0  0  0  0  0  0  0
    6.5794   -2.6199   -0.0000 C   0  0  0  0  0  0  0  0  0  0  0  0
    8.1798    1.5174   -0.0000 C   0  0  0  0  0  0  0  0  0  0  0  0
    8.9385    0.2371   -0.0000 C   0  0  0  0  0  0  0  0  0  0  0  0
    8.9741   -2.3710   -0.0000 C   0  0  0  0  0  0  0  0  0  0  0  0
    7.4685   -2.3947   -0.0000 C   0  0  0  0  0  0  0  0  0  0  0  0
   10.4322    0.2727   -0.0000 C   0  0  0  0  0  0  0  0  0  0  0  0
   10.4678   -2.3354   -0.0000 C   0  0  0  0  0  0  0  0  0  0  0  0
   11.1909   -1.0077   -0.0000 C   0  0  0  0  0  0  0  0  0  0  0  0
   11.4162    1.4226   -0.0000 C   0  0  0  0  0  0  0  0  0  0  0  0
   12.0801   -2.2050   -0.0000 C   0  0  0  0  0  0  0  0  0  0  0  0
   12.6491   -0.6639   -0.0000 C   0  0  0  0  0  0  0  0  0  0  0  0
   11.0724    2.9044   -0.0000 C   0  0  0  0  0  0  0  0  0  0  0  0
   12.7913    0.8417   -0.0000 C   0  0  0  0  0  0  0  0  0  0  0  0
   13.5619   -2.0153   -0.0000 O   0  0  0  0  0  0  0  0  0  0  0  0
   11.4755   -3.5802   -0.0000 O   0  0  0  0  0  0  0  0  0  0  0  0
   12.1630    3.9358   -0.0000 C   0  0  0  0  0  0  0  0  0  0  0  0
    9.6261    3.3549   -0.0000 C   0  0  0  0  0  0  0  0  0  0  0  0
  1  2  2  0  0  0  0
  2  3  1  0  0  0  0
  2  4  1  0  0  0  0
  3  5  1  0  0  0  0
  3  6  1  0  0  0  0
  3  7  1  0  0  0  0
  4  8  1  0  0  0  0
  5  9  1  0  0  0  0
  5 10  1  1  0  0  0
  9 11  1  0  0  0  0
  9 12  1  1  0  0  0
 10 13  1  0  0  0  0
 11 14  1  0  0  0  0
 11 15  1  1  0  0  0
 14 16  1  0  0  0  0
 14 17  1  1  0  0  0
 15 18  1  0  0  0  0
 16 19  1  0  0  0  0
 16 20  1  0  0  0  0
 16 21  1  6  0  0  0
 22 19  1  1  0  0  0
 20 23  1  0  0  0  0
 22 24  1  0  0  0  0
 22 25  1  0  0  0  0
 24 26  1  1  0  0  0
 24 27  1  0  0  0  0
 25 28  1  6  0  0  0
 25 29  1  0  0  0  0
 26 30  2  0  0  0  0
 26 31  1  0  0  0  0
 28 32  2  0  0  0  0
 28 33  1  0  0  0  0
  8  9  1  0  0  0  0
 13 14  1  0  0  0  0
 19 18  1  6  0  0  0
 23 24  1  0  0  0  0
 27 29  1  0  0  0  0
M  END
>  <MolRegNo>
71232

>  <m>


>  <Value>
0

>  <Unit>


>  <Type>
Inhibition

>  <Ligand Efficiency>


>  <Binding Efficiency>


>  <Surface Efficiency>


>  <Assay Index>
294024

>  <Assay Category>


>  <Assay Organism>
SARS coronavirus

>  <Target ID>
100499

>  <Target Name>
SARS coronavirus

>  <Target Organism>
SARS coronavirus

>  <Target Description>
Target is a complete organism

>  <Sequence Accession>


>  <Reference>
J. Med. Chem. 50 (17), 4087-4095 (2007)

>  <Pubmed ID>
17663539

>  <DOI>
10.1021/jm070295s

>  <InChI-Key>
SLJTWDNVZKIDAU-CKURCAGRSA-N

>  <Molecular Formula>
C30H46O3

>  <Monoisotopic Mass>
454.344695

>  <Druglikeness>
-23.657

$$$$
Compound 506
Actelion Java MolfileCreator 1.0

 14 15  0  0  0  0  0  0  0  0999 V2000
    0.0000   -0.0000   -0.0000 O   0  0  0  0  0  0  0  0  0  0  0  0
   -1.4986    0.0117   -0.0000 C   0  0  0  0  0  0  0  0  0  0  0  0
   -2.3884   -1.1942   -0.0000 N   0  0  0  0  0  0  0  0  0  0  0  0
   -2.3884    1.2293   -0.0000 C   0  0  0  0  0  0  0  0  0  0  0  0
   -3.8285   -0.7259   -0.0000 C   0  0  0  0  0  0  0  0  0  0  0  0
   -1.9435    2.6577   -0.0000 O   0  0  0  0  0  0  0  0  0  0  0  0
   -3.8285    0.7727   -0.0000 C   0  0  0  0  0  0  0  0  0  0  0  0
   -5.1281   -1.4635   -0.0000 C   0  0  0  0  0  0  0  0  0  0  0  0
   -5.1398    1.5220   -0.0000 C   0  0  0  0  0  0  0  0  0  0  0  0
   -6.4277   -0.7025   -0.0000 C   0  0  0  0  0  0  0  0  0  0  0  0
   -6.4277    0.7844   -0.0000 C   0  0  0  0  0  0  0  0  0  0  0  0
   -7.7273    1.5337   -0.0000 C   0  0  0  0  0  0  0  0  0  0  0  0
   -7.7390    3.0324   -0.0000 O   0  0  0  0  0  0  0  0  0  0  0  0
   -9.0269    0.7961   -0.0000 O   0  0  0  0  0  0  0  0  0  0  0  0
  1  2  2  0  0  0  0
  2  3  1  0  0  0  0
  2  4  1  0  0  0  0
  3  5  1  0  0  0  0
  4  6  2  0  0  0  0
  4  7  1  0  0  0  0
  5  8  1  0  0  0  0
  7  9  1  0  0  0  0
  8 10  2  0  0  0  0
  9 11  2  0  0  0  0
 11 12  1  0  0  0  0
 12 13  2  0  0  0  0
 12 14  1  0  0  0  0
  5  7  2  0  0  0  0
 10 11  1  0  0  0  0
M  END
>  <MolRegNo>
348567

>  <m>
<

>  <Value>
25

>  <Unit>
%

>  <Type>
Inhibition

>  <Ligand Efficiency>


>  <Binding Efficiency>


>  <Surface Efficiency>


>  <Assay Index>
262887

>  <Assay Category>


>  <Assay Organism>
SARS coronavirus

>  <Target ID>
20012

>  <Target Name>
SARS coronavirus 3C-like proteinase

>  <Target Organism>
SARS coronavirus

>  <Target Description>
Target is a single protein chain

>  <Sequence Accession>
P0C6U8

>  <Reference>
J. Med. Chem. 49 (12), 3440-3443 (2006)

>  <Pubmed ID>
16759084

>  <DOI>
10.1021/jm0602357

>  <InChI-Key>
SNPPWTIGLNZFRF-UHFFFAOYSA-N

>  <Molecular Formula>
C9H5NO4

>  <Monoisotopic Mass>
191.021859

>  <Druglikeness>
-1.4713

$$$$
Compound 507
Actelion Java MolfileCreator 1.0

 33 37  0  0  0  0  0  0  0  0999 V2000
    0.0000   -0.0000   -0.0000 O   0  0  0  0  0  0  0  0  0  0  0  0
   -1.1775    0.3845   -0.0000 C   0  0  0  0  0  0  0  0  0  0  0  0
   -2.4271   -0.5046   -0.0000 N   0  0  0  0  0  0  0  0  0  0  0  0
   -1.6701    1.8263   -0.0000 C   0  0  0  0  0  0  0  0  0  0  0  0
   -3.6766    0.4085   -0.0000 N   0  0  0  0  0  0  0  0  0  0  0  0
   -2.4391   -2.0185   -0.0000 C   0  0  0  0  0  0  0  0  0  0  0  0
   -3.1960    1.8503   -0.0000 C   0  0  0  0  0  0  0  0  0  0  0  0
   -0.7930    3.0759   -0.0000 C   0  0  0  0  0  0  0  0  0  0  0  0
   -3.8328   -2.6674   -0.0000 C   0  0  0  0  0  0  0  0  0  0  0  0
   -1.1895   -2.8596   -0.0000 C   0  0  0  0  0  0  0  0  0  0  0  0
   -4.0972    3.0999   -0.0000 C   0  0  0  0  0  0  0  0  0  0  0  0
    0.7089    2.9317   -0.0000 C   0  0  0  0  0  0  0  0  0  0  0  0
   -3.9530   -4.1813   -0.0000 C   0  0  0  0  0  0  0  0  0  0  0  0
   -1.3096   -4.3735   -0.0000 C   0  0  0  0  0  0  0  0  0  0  0  0
   -3.5925    4.5417   -0.0000 C   0  0  0  0  0  0  0  0  0  0  0  0
   -5.6111    2.8356   -0.0000 C   0  0  0  0  0  0  0  0  0  0  0  0
    1.7182    4.0731   -0.0000 O   0  0  0  0  0  0  0  0  0  0  0  0
    1.4658    1.6220   -0.0000 C   0  0  0  0  0  0  0  0  0  0  0  0
   -5.3467   -4.8301   -0.0000 C   0  0  0  0  0  0  0  0  0  0  0  0
   -2.7034   -5.0223   -0.0000 C   0  0  0  0  0  0  0  0  0  0  0  0
   -4.5898    5.7192   -0.0000 C   0  0  0  0  0  0  0  0  0  0  0  0
   -6.6083    4.0131   -0.0000 C   0  0  0  0  0  0  0  0  0  0  0  0
    3.0759    3.4604   -0.0000 C   0  0  0  0  0  0  0  0  0  0  0  0
    2.9437    1.9585   -0.0000 C   0  0  0  0  0  0  0  0  0  0  0  0
   -6.3680   -4.1332   -0.0000 O   0  0  0  0  0  0  0  0  0  0  0  0
   -5.4549   -6.0316   -0.0000 O   0  0  0  0  0  0  0  0  0  0  0  0
   -6.1037    5.4549   -0.0000 C   0  0  0  0  0  0  0  0  0  0  0  0
    4.3855    4.2413   -0.0000 C   0  0  0  0  0  0  0  0  0  0  0  0
    5.6952    3.4964   -0.0000 C   0  0  0  0  0  0  0  0  0  0  0  0
    4.3735    5.7793   -0.0000 C   0  0  0  0  0  0  0  0  0  0  0  0
    7.0048    4.2654   -0.0000 C   0  0  0  0  0  0  0  0  0  0  0  0
    5.6832    6.5482   -0.0000 C   0  0  0  0  0  0  0  0  0  0  0  0
    6.9928    5.8033   -0.0000 C   0  0  0  0  0  0  0  0  0  0  0  0
  1  2  2  0  0  0  0
  2  3  1  0  0  0  0
  2  4  1  0  0  0  0
  3  5  1  0  0  0  0
  3  6  1  0  0  0  0
  4  7  1  0  0  0  0
  4  8  2  0  0  0  0
  6  9  2  0  0  0  0
  6 10  1  0  0  0  0
  7 11  1  0  0  0  0
  8 12  1  0  0  0  0
  9 13  1  0  0  0  0
 10 14  2  0  0  0  0
 11 15  2  0  0  0  0
 11 16  1  0  0  0  0
 12 17  1  0  0  0  0
 12 18  2  0  0  0  0
 13 19  1  0  0  0  0
 13 20  2  0  0  0  0
 15 21  1  0  0  0  0
 16 22  2  0  0  0  0
 17 23  1  0  0  0  0
 18 24  1  0  0  0  0
 19 25  2  0  0  0  0
 19 26  1  0  0  0  0
 21 27  2  0  0  0  0
 23 28  1  0  0  0  0
 28 29  2  0  0  0  0
 28 30  1  0  0  0  0
 29 31  1  0  0  0  0
 30 32  2  0  0  0  0
 31 33  2  0  0  0  0
  5  7  2  0  0  0  0
 14 20  1  0  0  0  0
 22 27  1  0  0  0  0
 23 24  2  0  0  0  0
 32 33  1  0  0  0  0
M  END
>  <MolRegNo>
2087895

>  <m>
=

>  <Value>
6400

>  <Unit>
nM

>  <Type>
IC50

>  <Ligand Efficiency>
0.21

>  <Binding Efficiency>
11.95

>  <Surface Efficiency>
6.25

>  <Assay Index>
1017144

>  <Assay Category>


>  <Assay Organism>
SARS coronavirus

>  <Target ID>
101075

>  <Target Name>
Replicase polyprotein 1ab

>  <Target Organism>
SARS coronavirus

>  <Target Description>
Target is a single protein chain

>  <Sequence Accession>
P0C6X7

>  <Reference>
Bioorg. Med. Chem. 24 (13), 3035-3042 (2016)

>  <Pubmed ID>
27240464

>  <DOI>
10.1016/j.bmc.2016.05.013

>  <InChI-Key>
SQOXEZFEMGRSIQ-UHFFFAOYSA-N

>  <Molecular Formula>
C27H18N2O4

>  <Monoisotopic Mass>
434.126658

>  <Druglikeness>
4.9703

$$$$
Compound 508
Actelion Java MolfileCreator 1.0

 21 23  0  0  0  0  0  0  0  0999 V2000
    0.0000   -0.0000   -0.0000 O   0  0  0  0  0  0  0  0  0  0  0  0
   -1.5076    0.0118   -0.0000 C   0  0  0  0  0  0  0  0  0  0  0  0
   -2.4027   -1.2014   -0.0000 N   0  0  0  0  0  0  0  0  0  0  0  0
   -2.4027    1.2367   -0.0000 C   0  0  0  0  0  0  0  0  0  0  0  0
   -3.8514   -0.7302   -0.0000 C   0  0  0  0  0  0  0  0  0  0  0  0
   -1.9551   -2.6147   -0.0000 C   0  0  0  0  0  0  0  0  0  0  0  0
   -1.9551    2.6736   -0.0000 O   0  0  0  0  0  0  0  0  0  0  0  0
   -3.8514    0.7773   -0.0000 C   0  0  0  0  0  0  0  0  0  0  0  0
   -5.1588   -1.4722   -0.0000 C   0  0  0  0  0  0  0  0  0  0  0  0
   -0.5065   -2.9092   -0.0000 C   0  0  0  0  0  0  0  0  0  0  0  0
   -5.1705    1.5311   -0.0000 C   0  0  0  0  0  0  0  0  0  0  0  0
   -6.4661   -0.7067   -0.0000 C   0  0  0  0  0  0  0  0  0  0  0  0
   -0.0589   -4.3225   -0.0000 C   0  0  0  0  0  0  0  0  0  0  0  0
    0.4711   -1.7903   -0.0000 C   0  0  0  0  0  0  0  0  0  0  0  0
   -6.4661    0.7891   -0.0000 C   0  0  0  0  0  0  0  0  0  0  0  0
    1.3898   -4.6170   -0.0000 C   0  0  0  0  0  0  0  0  0  0  0  0
    1.9198   -2.0847   -0.0000 C   0  0  0  0  0  0  0  0  0  0  0  0
   -7.7735    1.5429   -0.0000 C   0  0  0  0  0  0  0  0  0  0  0  0
    2.3792   -3.4981   -0.0000 C   0  0  0  0  0  0  0  0  0  0  0  0
   -7.7852    3.0505   -0.0000 O   0  0  0  0  0  0  0  0  0  0  0  0
   -9.0808    0.8009   -0.0000 O   0  0  0  0  0  0  0  0  0  0  0  0
  1  2  2  0  0  0  0
  2  3  1  0  0  0  0
  2  4  1  0  0  0  0
  3  5  1  0  0  0  0
  3  6  1  0  0  0  0
  4  7  2  0  0  0  0
  4  8  1  0  0  0  0
  5  9  1  0  0  0  0
  6 10  1  0  0  0  0
  8 11  1  0  0  0  0
  9 12  2  0  0  0  0
 10 13  2  0  0  0  0
 10 14  1  0  0  0  0
 11 15  2  0  0  0  0
 13 16  1  0  0  0  0
 14 17  2  0  0  0  0
 15 18  1  0  0  0  0
 16 19  2  0  0  0  0
 18 20  2  0  0  0  0
 18 21  1  0  0  0  0
  5  8  2  0  0  0  0
 12 15  1  0  0  0  0
 17 19  1  0  0  0  0
M  END
>  <MolRegNo>
348566

>  <m>
<

>  <Value>
25

>  <Unit>
%

>  <Type>
Inhibition

>  <Ligand Efficiency>


>  <Binding Efficiency>


>  <Surface Efficiency>


>  <Assay Index>
262887

>  <Assay Category>


>  <Assay Organism>
SARS coronavirus

>  <Target ID>
20012

>  <Target Name>
SARS coronavirus 3C-like proteinase

>  <Target Organism>
SARS coronavirus

>  <Target Description>
Target is a single protein chain

>  <Sequence Accession>
P0C6U8

>  <Reference>
J. Med. Chem. 49 (12), 3440-3443 (2006)

>  <Pubmed ID>
16759084

>  <DOI>
10.1021/jm0602357

>  <InChI-Key>
SRXXVPDYEVSZPE-UHFFFAOYSA-N

>  <Molecular Formula>
C16H11NO4

>  <Monoisotopic Mass>
281.068809

>  <Druglikeness>
-0.11056

$$$$
Compound 509
Actelion Java MolfileCreator 1.0

 21 23  0  0  0  0  0  0  0  0999 V2000
    0.0000   -0.0000   -0.0000 F   0  0  0  0  0  0  0  0  0  0  0  0
    1.0755   -0.6181   -0.0000 C   0  0  0  0  0  0  0  0  0  0  0  0
    1.0631   -2.1757   -0.0000 N   0  0  0  0  0  0  0  0  0  0  0  0
    2.4352    0.1978   -0.0000 C   0  0  0  0  0  0  0  0  0  0  0  0
    2.4229   -2.9668   -0.0000 C   0  0  0  0  0  0  0  0  0  0  0  0
    3.7827   -0.5934   -0.0000 C   0  0  0  0  0  0  0  0  0  0  0  0
    2.4105   -4.2153   -0.0000 N   0  0  0  0  0  0  0  0  0  0  0  0
    3.7703   -2.1509   -0.0000 C   0  0  0  0  0  0  0  0  0  0  0  0
    5.2661   -0.0989   -0.0000 N   0  0  0  0  0  0  0  0  0  0  0  0
    5.2537   -2.6207   -0.0000 N   0  0  0  0  0  0  0  0  0  0  0  0
    6.1685   -1.3351   -0.0000 C   0  0  0  0  0  0  0  0  0  0  0  0
    5.7358    1.4092   -0.0000 C   0  0  0  0  0  0  0  0  0  0  0  0
    7.2439    1.7801   -0.0000 C   0  0  0  0  0  0  0  0  0  0  0  0
    4.8829    2.7319   -0.0000 C   0  0  0  0  0  0  0  0  0  0  0  0
    7.3428    3.3624   -0.0000 C   0  0  0  0  0  0  0  0  0  0  0  0
    3.6096    2.8308   -0.0000 O   0  0  0  0  0  0  0  0  0  0  0  0
    5.8842    3.9434   -0.0000 C   0  0  0  0  0  0  0  0  0  0  0  0
    8.6655    4.2030   -0.0000 C   0  0  0  0  0  0  0  0  0  0  0  0
    5.5628    5.1795   -0.0000 O   0  0  0  0  0  0  0  0  0  0  0  0
   10.0377    3.4736   -0.0000 C   0  0  0  0  0  0  0  0  0  0  0  0
   11.1008    4.1535   -0.0000 O   0  0  0  0  0  0  0  0  0  0  0  0
  1  2  1  0  0  0  0
  2  3  2  0  0  0  0
  2  4  1  0  0  0  0
  3  5  1  0  0  0  0
  4  6  2  0  0  0  0
  5  7  1  0  0  0  0
  5  8  2  0  0  0  0
  6  9  1  0  0  0  0
  8 10  1  0  0  0  0
  9 11  1  0  0  0  0
 12  9  1  1  0  0  0
 12 13  1  0  0  0  0
 12 14  1  0  0  0  0
 13 15  2  0  0  0  0
 14 16  1  6  0  0  0
 14 17  1  0  0  0  0
 15 18  1  0  0  0  0
 17 19  1  6  0  0  0
 18 20  1  0  0  0  0
 20 21  1  0  0  0  0
  6  8  1  0  0  0  0
 10 11  2  0  0  0  0
 15 17  1  0  0  0  0
M  END
>  <MolRegNo>
1957402

>  <m>


>  <Value>
0

>  <Unit>


>  <Type>
Activity

>  <Ligand Efficiency>


>  <Binding Efficiency>


>  <Surface Efficiency>


>  <Assay Index>
956765

>  <Assay Category>


>  <Assay Organism>
SARS coronavirus

>  <Target ID>
100499

>  <Target Name>
SARS coronavirus

>  <Target Organism>
SARS coronavirus

>  <Target Description>
Target is a complete organism

>  <Sequence Accession>


>  <Reference>
Bioorg. Med. Chem. 23 (17), 5496-5501 (2015)

>  <Pubmed ID>
26260336

>  <DOI>
10.1016/j.bmc.2015.07.039

>  <InChI-Key>
STALKTAKPTUXFI-ZHAHWJHGSA-N

>  <Molecular Formula>
C13H15N4O3F

>  <Monoisotopic Mass>
294.112819

>  <Druglikeness>
-1.0653

$$$$
Compound 510
Actelion Java MolfileCreator 1.0

 37 41  0  0  0  0  0  0  0  0999 V2000
    0.0000   -0.0000   -0.0000 Cl  0  0  0  0  0  0  0  0  0  0  0  0
   -0.0122   -1.2318   -0.0000 C   0  0  0  0  0  0  0  0  0  0  0  0
   -1.3660   -1.9880   -0.0000 C   0  0  0  0  0  0  0  0  0  0  0  0
    1.3172   -1.9880   -0.0000 C   0  0  0  0  0  0  0  0  0  0  0  0
   -1.3782   -3.5248   -0.0000 C   0  0  0  0  0  0  0  0  0  0  0  0
    1.3050   -3.5248   -0.0000 C   0  0  0  0  0  0  0  0  0  0  0  0
   -0.0488   -4.2810   -0.0000 C   0  0  0  0  0  0  0  0  0  0  0  0
   -2.7320   -4.2810   -0.0000 C   0  0  0  0  0  0  0  0  0  0  0  0
   -0.0610   -5.8177   -0.0000 C   0  0  0  0  0  0  0  0  0  0  0  0
   -4.1346   -3.6345   -0.0000 O   0  0  0  0  0  0  0  0  0  0  0  0
   -2.8784   -5.7933   -0.0000 C   0  0  0  0  0  0  0  0  0  0  0  0
    1.0001   -6.4275   -0.0000 O   0  0  0  0  0  0  0  0  0  0  0  0
   -1.1465   -6.4275   -0.0000 O   0  0  0  0  0  0  0  0  0  0  0  0
   -5.1835   -4.7688   -0.0000 C   0  0  0  0  0  0  0  0  0  0  0  0
   -4.4029   -6.1104   -0.0000 C   0  0  0  0  0  0  0  0  0  0  0  0
   -6.7324   -4.5981   -0.0000 C   0  0  0  0  0  0  0  0  0  0  0  0
   -7.6472   -5.8421   -0.0000 C   0  0  0  0  0  0  0  0  0  0  0  0
   -7.1715   -7.2813   -0.0000 C   0  0  0  0  0  0  0  0  0  0  0  0
   -9.1961   -5.8177   -0.0000 C   0  0  0  0  0  0  0  0  0  0  0  0
   -6.0007   -7.6472   -0.0000 O   0  0  0  0  0  0  0  0  0  0  0  0
   -8.4399   -8.1838   -0.0000 N   0  0  0  0  0  0  0  0  0  0  0  0
   -9.6840   -7.2813   -0.0000 N   0  0  0  0  0  0  0  0  0  0  0  0
  -10.1109   -4.5493   -0.0000 C   0  0  0  0  0  0  0  0  0  0  0  0
   -8.4521   -9.7206   -0.0000 C   0  0  0  0  0  0  0  0  0  0  0  0
   -9.5986   -3.0857   -0.0000 C   0  0  0  0  0  0  0  0  0  0  0  0
  -11.6476   -4.8176   -0.0000 C   0  0  0  0  0  0  0  0  0  0  0  0
   -7.1837  -10.5743   -0.0000 C   0  0  0  0  0  0  0  0  0  0  0  0
   -9.8669  -10.3792   -0.0000 C   0  0  0  0  0  0  0  0  0  0  0  0
  -10.6109   -1.8904   -0.0000 C   0  0  0  0  0  0  0  0  0  0  0  0
  -12.6599   -3.6223   -0.0000 C   0  0  0  0  0  0  0  0  0  0  0  0
   -7.3057  -12.1111   -0.0000 C   0  0  0  0  0  0  0  0  0  0  0  0
   -9.9889  -11.9159   -0.0000 C   0  0  0  0  0  0  0  0  0  0  0  0
  -12.1477   -2.1588   -0.0000 C   0  0  0  0  0  0  0  0  0  0  0  0
   -8.7083  -12.7697   -0.0000 C   0  0  0  0  0  0  0  0  0  0  0  0
   -8.8424  -14.3064   -0.0000 C   0  0  0  0  0  0  0  0  0  0  0  0
   -9.9767  -14.8309   -0.0000 C   0  0  0  0  0  0  0  0  0  0  0  0
   -7.8301  -14.9894   -0.0000 C   0  0  0  0  0  0  0  0  0  0  0  0
  1  2  1  0  0  0  0
  2  3  2  0  0  0  0
  2  4  1  0  0  0  0
  3  5  1  0  0  0  0
  4  6  2  0  0  0  0
  5  7  2  0  0  0  0
  5  8  1  0  0  0  0
  7  9  1  0  0  0  0
  8 10  1  0  0  0  0
  8 11  2  0  0  0  0
  9 12  2  0  0  0  0
  9 13  1  0  0  0  0
 10 14  1  0  0  0  0
 11 15  1  0  0  0  0
 14 16  1  0  0  0  0
 16 17  2  0  0  0  0
 17 18  1  0  0  0  0
 17 19  1  0  0  0  0
 18 20  2  0  0  0  0
 18 21  1  0  0  0  0
 19 22  2  0  0  0  0
 19 23  1  0  0  0  0
 21 24  1  0  0  0  0
 23 25  2  0  0  0  0
 23 26  1  0  0  0  0
 24 27  2  0  0  0  0
 24 28  1  0  0  0  0
 25 29  1  0  0  0  0
 26 30  2  0  0  0  0
 27 31  1  0  0  0  0
 28 32  2  0  0  0  0
 29 33  2  0  0  0  0
 31 34  2  0  0  0  0
 34 35  1  0  0  0  0
 35 36  1  0  0  0  0
 35 37  1  0  0  0  0
  6  7  1  0  0  0  0
 14 15  2  0  0  0  0
 21 22  1  0  0  0  0
 30 33  1  0  0  0  0
 32 34  1  0  0  0  0
M  END
>  <MolRegNo>
2087892

>  <m>
=

>  <Value>
6000

>  <Unit>
nM

>  <Type>
IC50

>  <Ligand Efficiency>
0.19

>  <Binding Efficiency>
10.22

>  <Surface Efficiency>
6.28

>  <Assay Index>
1017144

>  <Assay Category>


>  <Assay Organism>
SARS coronavirus

>  <Target ID>
101075

>  <Target Name>
Replicase polyprotein 1ab

>  <Target Organism>
SARS coronavirus

>  <Target Description>
Target is a single protein chain

>  <Sequence Accession>
P0C6X7

>  <Reference>
Bioorg. Med. Chem. 24 (13), 3035-3042 (2016)

>  <Pubmed ID>
27240464

>  <DOI>
10.1016/j.bmc.2016.05.013

>  <InChI-Key>
SVQAGVLZHTXJJV-UHFFFAOYSA-N

>  <Molecular Formula>
C30H23N2O4Cl

>  <Monoisotopic Mass>
510.134635

>  <Druglikeness>
4.8556

$$$$
Compound 511
Actelion Java MolfileCreator 1.0

 22 23  0  0  0  0  0  0  0  0999 V2000
    0.0000   -0.0000   -0.0000 O   0  0  0  0  0  0  0  0  0  0  0  0
   -0.0117    1.5024   -0.0000 C   0  0  0  0  0  0  0  0  0  0  0  0
    1.2677    2.2654   -0.0000 O   0  0  0  0  0  0  0  0  0  0  0  0
   -1.3146    2.2654   -0.0000 C   0  0  0  0  0  0  0  0  0  0  0  0
   -2.6175    1.5259   -0.0000 O   0  0  0  0  0  0  0  0  0  0  0  0
   -1.3264    3.7678   -0.0000 C   0  0  0  0  0  0  0  0  0  0  0  0
   -2.6293    4.5190   -0.0000 C   0  0  0  0  0  0  0  0  0  0  0  0
   -3.9321    3.7796   -0.0000 O   0  0  0  0  0  0  0  0  0  0  0  0
   -2.6410    6.0215   -0.0000 C   0  0  0  0  0  0  0  0  0  0  0  0
   -3.9439    6.7727   -0.0000 C   0  0  0  0  0  0  0  0  0  0  0  0
   -1.3616    6.7727   -0.0000 C   0  0  0  0  0  0  0  0  0  0  0  0
   -3.9556    8.2751   -0.0000 C   0  0  0  0  0  0  0  0  0  0  0  0
   -1.3733    8.2751   -0.0000 C   0  0  0  0  0  0  0  0  0  0  0  0
   -2.6762    9.0381   -0.0000 C   0  0  0  0  0  0  0  0  0  0  0  0
   -2.6879   10.5405   -0.0000 O   0  0  0  0  0  0  0  0  0  0  0  0
   -3.9908   11.2917   -0.0000 C   0  0  0  0  0  0  0  0  0  0  0  0
   -4.0026   12.7941   -0.0000 C   0  0  0  0  0  0  0  0  0  0  0  0
   -5.3055   13.5571   -0.0000 C   0  0  0  0  0  0  0  0  0  0  0  0
   -2.7232   13.5571   -0.0000 C   0  0  0  0  0  0  0  0  0  0  0  0
   -5.3172   15.0595   -0.0000 C   0  0  0  0  0  0  0  0  0  0  0  0
   -2.7349   15.0595   -0.0000 C   0  0  0  0  0  0  0  0  0  0  0  0
   -4.0378   15.8107   -0.0000 C   0  0  0  0  0  0  0  0  0  0  0  0
  1  2  2  0  0  0  0
  2  3  1  0  0  0  0
  2  4  1  0  0  0  0
  4  5  1  0  0  0  0
  4  6  2  0  0  0  0
  6  7  1  0  0  0  0
  7  8  2  0  0  0  0
  7  9  1  0  0  0  0
  9 10  2  0  0  0  0
  9 11  1  0  0  0  0
 10 12  1  0  0  0  0
 11 13  2  0  0  0  0
 12 14  2  0  0  0  0
 14 15  1  0  0  0  0
 15 16  1  0  0  0  0
 16 17  1  0  0  0  0
 17 18  2  0  0  0  0
 17 19  1  0  0  0  0
 18 20  1  0  0  0  0
 19 21  2  0  0  0  0
 20 22  2  0  0  0  0
 13 14  1  0  0  0  0
 21 22  1  0  0  0  0
M  END
>  <MolRegNo>
478391

>  <m>
=

>  <Value>
41300

>  <Unit>
nM

>  <Type>
IC50

>  <Ligand Efficiency>
0.27

>  <Binding Efficiency>
14.70

>  <Surface Efficiency>
5.23

>  <Assay Index>
414789

>  <Assay Category>


>  <Assay Organism>
SARS coronavirus

>  <Target ID>
101075

>  <Target Name>
Replicase polyprotein 1ab

>  <Target Organism>
SARS coronavirus

>  <Target Description>
Target is a single protein chain

>  <Sequence Accession>
P0C6X7

>  <Reference>
Bioorg. Med. Chem. Lett. 19 (6), 1636-1638 (2009)

>  <Pubmed ID>
19233643

>  <DOI>
10.1016/j.bmcl.2009.02.010

>  <InChI-Key>
SWTDXRPWKGXCPJ-UHFFFAOYSA-N

>  <Molecular Formula>
C17H14O5

>  <Monoisotopic Mass>
298.084125

>  <Druglikeness>
0.9175

$$$$
Compound 512
Actelion Java MolfileCreator 1.0

 22 23  0  0  0  0  0  0  0  0999 V2000
    0.0000   -0.0000   -0.0000 O   0  0  0  0  0  0  0  0  0  0  0  0
   -0.0117    1.5024   -0.0000 C   0  0  0  0  0  0  0  0  0  0  0  0
    1.2677    2.2654   -0.0000 O   0  0  0  0  0  0  0  0  0  0  0  0
   -1.3146    2.2654   -0.0000 C   0  0  0  0  0  0  0  0  0  0  0  0
   -2.6175    1.5259   -0.0000 O   0  0  0  0  0  0  0  0  0  0  0  0
   -1.3264    3.7678   -0.0000 C   0  0  0  0  0  0  0  0  0  0  0  0
   -2.6293    4.5190   -0.0000 C   0  0  0  0  0  0  0  0  0  0  0  0
   -3.9321    3.7796   -0.0000 O   0  0  0  0  0  0  0  0  0  0  0  0
   -2.6410    6.0215   -0.0000 C   0  0  0  0  0  0  0  0  0  0  0  0
   -3.9439    6.7727   -0.0000 C   0  0  0  0  0  0  0  0  0  0  0  0
   -1.3616    6.7727   -0.0000 C   0  0  0  0  0  0  0  0  0  0  0  0
   -3.9556    8.2751   -0.0000 C   0  0  0  0  0  0  0  0  0  0  0  0
   -1.3733    8.2751   -0.0000 C   0  0  0  0  0  0  0  0  0  0  0  0
   -2.6762    9.0381   -0.0000 C   0  0  0  0  0  0  0  0  0  0  0  0
   -2.6879   10.5405   -0.0000 O   0  0  0  0  0  0  0  0  0  0  0  0
   -3.9908   11.2917   -0.0000 C   0  0  0  0  0  0  0  0  0  0  0  0
   -4.0026   12.7941   -0.0000 C   0  0  0  0  0  0  0  0  0  0  0  0
   -5.3055   13.5571   -0.0000 C   0  0  0  0  0  0  0  0  0  0  0  0
   -2.7232   13.5571   -0.0000 C   0  0  0  0  0  0  0  0  0  0  0  0
   -5.3172   15.0595   -0.0000 C   0  0  0  0  0  0  0  0  0  0  0  0
   -2.7349   15.0595   -0.0000 C   0  0  0  0  0  0  0  0  0  0  0  0
   -4.0378   15.8107   -0.0000 C   0  0  0  0  0  0  0  0  0  0  0  0
  1  2  2  0  0  0  0
  2  3  1  0  0  0  0
  2  4  1  0  0  0  0
  4  5  1  0  0  0  0
  4  6  2  0  0  0  0
  6  7  1  0  0  0  0
  7  8  2  0  0  0  0
  7  9  1  0  0  0  0
  9 10  2  0  0  0  0
  9 11  1  0  0  0  0
 10 12  1  0  0  0  0
 11 13  2  0  0  0  0
 12 14  2  0  0  0  0
 14 15  1  0  0  0  0
 15 16  1  0  0  0  0
 16 17  1  0  0  0  0
 17 18  2  0  0  0  0
 17 19  1  0  0  0  0
 18 20  1  0  0  0  0
 19 21  2  0  0  0  0
 20 22  2  0  0  0  0
 13 14  1  0  0  0  0
 21 22  1  0  0  0  0
M  END
>  <MolRegNo>
478391

>  <m>
=

>  <Value>
39900

>  <Unit>
nM

>  <Type>
IC50

>  <Ligand Efficiency>
0.27

>  <Binding Efficiency>
14.75

>  <Surface Efficiency>
5.25

>  <Assay Index>
414790

>  <Assay Category>


>  <Assay Organism>
SARS coronavirus

>  <Target ID>
101075

>  <Target Name>
Replicase polyprotein 1ab

>  <Target Organism>
SARS coronavirus

>  <Target Description>
Target is a single protein chain

>  <Sequence Accession>
P0C6X7

>  <Reference>
Bioorg. Med. Chem. Lett. 19 (6), 1636-1638 (2009)

>  <Pubmed ID>
19233643

>  <DOI>
10.1016/j.bmcl.2009.02.010

>  <InChI-Key>
SWTDXRPWKGXCPJ-UHFFFAOYSA-N

>  <Molecular Formula>
C17H14O5

>  <Monoisotopic Mass>
298.084125

>  <Druglikeness>
0.9175

$$$$
Compound 513
Actelion Java MolfileCreator 1.0

 23 24  0  0  0  0  0  0  0  0999 V2000
    0.0000   -0.0000   -0.0000 S   0  0  0  0  0  0  0  0  0  0  0  0
    0.7482   -1.2827   -0.0000 O   0  0  0  0  0  0  0  0  0  0  0  0
   -0.7720    1.3064   -0.0000 O   0  0  0  0  0  0  0  0  0  0  0  0
    1.2827    0.7720   -0.0000 C   0  0  0  0  0  0  0  0  0  0  0  0
   -1.3064   -0.7364   -0.0000 C   0  0  0  0  0  0  0  0  0  0  0  0
    2.5773    0.0356   -0.0000 N   0  0  0  0  0  0  0  0  0  0  0  0
    1.2589    2.2685   -0.0000 C   0  0  0  0  0  0  0  0  0  0  0  0
   -2.6129    0.0238   -0.0000 C   0  0  0  0  0  0  0  0  0  0  0  0
   -1.3183   -2.2328   -0.0000 C   0  0  0  0  0  0  0  0  0  0  0  0
    3.8600    0.8076   -0.0000 C   0  0  0  0  0  0  0  0  0  0  0  0
   -0.0594    3.0167   -0.0000 C   0  0  0  0  0  0  0  0  0  0  0  0
    2.5298    3.0405   -0.0000 C   0  0  0  0  0  0  0  0  0  0  0  0
   -3.9193   -0.7126   -0.0000 C   0  0  0  0  0  0  0  0  0  0  0  0
   -2.6366   -2.9692   -0.0000 C   0  0  0  0  0  0  0  0  0  0  0  0
    3.8362    2.3160   -0.0000 C   0  0  0  0  0  0  0  0  0  0  0  0
    5.1545    0.0831   -0.0000 C   0  0  0  0  0  0  0  0  0  0  0  0
   -1.3777    3.7649   -0.0000 N   0  0  0  0  0  0  0  0  0  0  0  0
    2.5060    4.5488   -0.0000 C   0  0  0  0  0  0  0  0  0  0  0  0
   -3.9312   -2.1972   -0.0000 C   0  0  0  0  0  0  0  0  0  0  0  0
    5.1189    3.0998   -0.0000 N   0  0  0  0  0  0  0  0  0  0  0  0
   -5.2377   -2.9336   -0.0000 C   0  0  0  0  0  0  0  0  0  0  0  0
    5.0951    4.6082   -0.0000 O   0  0  0  0  0  0  0  0  0  0  0  0
    6.4135    2.3754   -0.0000 O   0  0  0  0  0  0  0  0  0  0  0  0
  1  2  2  0  0  0  0
  1  3  2  0  0  0  0
  1  4  1  0  0  0  0
  1  5  1  0  0  0  0
  4  6  2  0  0  0  0
  4  7  1  0  0  0  0
  5  8  2  0  0  0  0
  5  9  1  0  0  0  0
  6 10  1  0  0  0  0
  7 11  1  0  0  0  0
  7 12  2  0  0  0  0
  8 13  1  0  0  0  0
  9 14  2  0  0  0  0
 10 15  2  0  0  0  0
 10 16  1  0  0  0  0
 11 17  3  0  0  0  0
 12 18  1  0  0  0  0
 13 19  2  0  0  0  0
 15 20  1  0  0  0  0
 19 21  1  0  0  0  0
 20 22  2  0  0  0  0
 20 23  1  0  0  0  0
 12 15  1  0  0  0  0
 14 19  1  0  0  0  0
M  CHG  2  20   1  23  -1
M  END
>  <MolRegNo>
356336

>  <m>
=

>  <Value>
13000

>  <Unit>
nM

>  <Type>
IC50

>  <Ligand Efficiency>
0.29

>  <Binding Efficiency>
14.75

>  <Surface Efficiency>
4.29

>  <Assay Index>
266027

>  <Assay Category>


>  <Assay Organism>
SARS coronavirus

>  <Target ID>
20012

>  <Target Name>
SARS coronavirus 3C-like proteinase

>  <Target Organism>
SARS coronavirus

>  <Target Description>
Target is a single protein chain

>  <Sequence Accession>
P0C6U8

>  <Reference>
J. Med. Chem. 49 (17), 5154-5161 (2006)

>  <Pubmed ID>
16913704

>  <DOI>
10.1021/jm060207o

>  <InChI-Key>
SWVOLMFAZXVBNL-UHFFFAOYSA-N

>  <Molecular Formula>
C15H13N3O4S

>  <Monoisotopic Mass>
331.062677

>  <Druglikeness>
-18.927

$$$$
Compound 514
Actelion Java MolfileCreator 1.0

 32 35  0  0  1  0  0  0  0  0999 V2000
    0.0000   -0.0000   -0.0000 O   0  0  0  0  0  0  0  0  0  0  0  0
   -0.0238    1.5209   -0.0000 C   0  0  0  0  0  0  0  0  0  0  0  0
    1.2595    2.3051   -0.0000 N   0  0  0  0  0  0  0  0  0  0  0  0
   -1.3427    2.2695   -0.0000 C   0  0  0  0  0  0  0  0  0  0  0  0
    2.6022    1.6635   -0.0000 C   0  0  0  0  0  0  0  0  0  0  0  0
   -2.1150    3.5884   -0.0000 N   0  0  0  0  0  0  0  0  0  0  0  0
   -2.8636    2.2814   -0.0000 C   0  0  0  0  0  0  0  0  0  0  0  0
    3.9211    2.4121   -0.0000 C   0  0  0  0  0  0  0  0  0  0  0  0
    2.5903    0.1663   -0.0000 C   0  0  0  0  0  0  0  0  0  0  0  0
   -2.1269    5.1093   -0.0000 C   0  0  0  0  0  0  0  0  0  0  0  0
   -4.1706    1.5209   -0.0000 C   0  0  0  0  0  0  0  0  0  0  0  0
    3.9211    3.9211   -0.0000 O   0  0  0  0  0  0  0  0  0  0  0  0
    5.1925    1.6516   -0.0000 O   0  0  0  0  0  0  0  0  0  0  0  0
    3.8854   -0.5822   -0.0000 C   0  0  0  0  0  0  0  0  0  0  0  0
   -0.8436    5.8816   -0.0000 C   0  0  0  0  0  0  0  0  0  0  0  0
    6.4876    2.3883   -0.0000 C   0  0  0  0  0  0  0  0  0  0  0  0
    3.8736   -2.0675   -0.0000 C   0  0  0  0  0  0  0  0  0  0  0  0
    5.1806    0.1901   -0.0000 C   0  0  0  0  0  0  0  0  0  0  0  0
    0.4515    5.1450   -0.0000 C   0  0  0  0  0  0  0  0  0  0  0  0
   -0.8674    7.3907   -0.0000 C   0  0  0  0  0  0  0  0  0  0  0  0
    7.7709    1.6278   -0.0000 C   0  0  0  0  0  0  0  0  0  0  0  0
    5.1687   -2.8042   -0.0000 C   0  0  0  0  0  0  0  0  0  0  0  0
    6.4639   -0.5585   -0.0000 C   0  0  0  0  0  0  0  0  0  0  0  0
    1.7348    5.9054   -0.0000 C   0  0  0  0  0  0  0  0  0  0  0  0
    0.4159    8.1630   -0.0000 C   0  0  0  0  0  0  0  0  0  0  0  0
    7.7353    0.1426   -0.0000 C   0  0  0  0  0  0  0  0  0  0  0  0
    9.0660    2.3883   -0.0000 C   0  0  0  0  0  0  0  0  0  0  0  0
    6.4520   -2.0437   -0.0000 C   0  0  0  0  0  0  0  0  0  0  0  0
    1.7229    7.4144   -0.0000 C   0  0  0  0  0  0  0  0  0  0  0  0
    9.0185   -0.6060   -0.0000 C   0  0  0  0  0  0  0  0  0  0  0  0
   10.3374    1.6278   -0.0000 C   0  0  0  0  0  0  0  0  0  0  0  0
   10.3256    0.1307   -0.0000 C   0  0  0  0  0  0  0  0  0  0  0  0
  1  2  2  0  0  0  0
  2  3  1  0  0  0  0
  4  2  1  6  0  0  0
  5  3  1  6  0  0  0
  4  6  1  0  0  0  0
  4  7  1  0  0  0  0
  5  8  1  0  0  0  0
  5  9  1  0  0  0  0
  6 10  1  0  0  0  0
  7 11  1  6  0  0  0
  8 12  2  0  0  0  0
  8 13  1  0  0  0  0
  9 14  1  0  0  0  0
 10 15  1  0  0  0  0
 13 16  1  0  0  0  0
 14 17  2  0  0  0  0
 14 18  1  0  0  0  0
 15 19  2  0  0  0  0
 15 20  1  0  0  0  0
 16 21  1  0  0  0  0
 17 22  1  0  0  0  0
 18 23  2  0  0  0  0
 19 24  1  0  0  0  0
 20 25  2  0  0  0  0
 21 26  2  0  0  0  0
 21 27  1  0  0  0  0
 22 28  2  0  0  0  0
 24 29  2  0  0  0  0
 26 30  1  0  0  0  0
 27 31  2  0  0  0  0
 30 32  2  0  0  0  0
  6  7  1  0  0  0  0
 23 28  1  0  0  0  0
 25 29  1  0  0  0  0
 31 32  1  0  0  0  0
M  END
>  <MolRegNo>
333612

>  <m>
=

>  <Value>
24

>  <Unit>
%

>  <Type>
Inhibition

>  <Ligand Efficiency>


>  <Binding Efficiency>


>  <Surface Efficiency>


>  <Assay Index>
254531

>  <Assay Category>


>  <Assay Organism>
SARS coronavirus

>  <Target ID>
20012

>  <Target Name>
SARS coronavirus 3C-like proteinase

>  <Target Organism>
SARS coronavirus

>  <Target Description>
Target is a single protein chain

>  <Sequence Accession>
P0C6U8

>  <Reference>
Bioorg. Med. Chem. Lett. 15 (24), 5365-5369 (2005)

>  <Pubmed ID>
16216498

>  <DOI>
10.1016/j.bmcl.2005.09.012

>  <InChI-Key>
SXCHLPYUCIEXAY-NQLWQBABSA-N

>  <Molecular Formula>
C27H28N2O3

>  <Monoisotopic Mass>
428.209993

>  <Druglikeness>
6.5262

$$$$
Compound 515
Actelion Java MolfileCreator 1.0

 32 35  0  0  1  0  0  0  0  0999 V2000
    0.0000   -0.0000   -0.0000 O   0  0  0  0  0  0  0  0  0  0  0  0
    0.0237    1.5176   -0.0000 C   0  0  0  0  0  0  0  0  0  0  0  0
    1.3397    2.2527   -0.0000 N   0  0  0  0  0  0  0  0  0  0  0  0
   -1.2686    2.3119   -0.0000 C   0  0  0  0  0  0  0  0  0  0  0  0
    2.6321    1.5176   -0.0000 C   0  0  0  0  0  0  0  0  0  0  0  0
   -2.0393    3.6280   -0.0000 N   0  0  0  0  0  0  0  0  0  0  0  0
   -2.7862    2.3238   -0.0000 C   0  0  0  0  0  0  0  0  0  0  0  0
    3.9244    2.2764   -0.0000 C   0  0  0  0  0  0  0  0  0  0  0  0
    2.6202    0.0237   -0.0000 C   0  0  0  0  0  0  0  0  0  0  0  0
   -2.0511    5.1456   -0.0000 C   0  0  0  0  0  0  0  0  0  0  0  0
   -4.1022    1.5769   -0.0000 C   0  0  0  0  0  0  0  0  0  0  0  0
    3.9125    3.7940   -0.0000 O   0  0  0  0  0  0  0  0  0  0  0  0
    5.2167    1.5294   -0.0000 O   0  0  0  0  0  0  0  0  0  0  0  0
    3.9125   -0.7114   -0.0000 C   0  0  0  0  0  0  0  0  0  0  0  0
   -0.7588    5.9043   -0.0000 C   0  0  0  0  0  0  0  0  0  0  0  0
    6.5090    2.2882   -0.0000 C   0  0  0  0  0  0  0  0  0  0  0  0
    3.9007   -2.2052   -0.0000 C   0  0  0  0  0  0  0  0  0  0  0  0
    5.2048    0.0474   -0.0000 C   0  0  0  0  0  0  0  0  0  0  0  0
    0.5335    5.1574   -0.0000 C   0  0  0  0  0  0  0  0  0  0  0  0
   -0.7825    7.4101   -0.0000 C   0  0  0  0  0  0  0  0  0  0  0  0
    7.8013    1.5532   -0.0000 C   0  0  0  0  0  0  0  0  0  0  0  0
    5.1930   -2.9403   -0.0000 C   0  0  0  0  0  0  0  0  0  0  0  0
    6.4972   -0.6995   -0.0000 C   0  0  0  0  0  0  0  0  0  0  0  0
    1.8258    5.9162   -0.0000 C   0  0  0  0  0  0  0  0  0  0  0  0
    0.4980    8.1807   -0.0000 C   0  0  0  0  0  0  0  0  0  0  0  0
    7.7776    0.0593   -0.0000 C   0  0  0  0  0  0  0  0  0  0  0  0
    9.0818    2.3238   -0.0000 C   0  0  0  0  0  0  0  0  0  0  0  0
    6.4734   -2.1815   -0.0000 C   0  0  0  0  0  0  0  0  0  0  0  0
    1.8140    7.4338   -0.0000 C   0  0  0  0  0  0  0  0  0  0  0  0
    9.0699   -0.6758   -0.0000 C   0  0  0  0  0  0  0  0  0  0  0  0
   10.3622    1.5887   -0.0000 C   0  0  0  0  0  0  0  0  0  0  0  0
   10.3622    0.0830   -0.0000 C   0  0  0  0  0  0  0  0  0  0  0  0
  1  2  2  0  0  0  0
  2  3  1  0  0  0  0
  2  4  1  0  0  0  0
  5  3  1  6  0  0  0
  4  6  1  0  0  0  0
  4  7  1  0  0  0  0
  5  8  1  0  0  0  0
  5  9  1  0  0  0  0
  6 10  1  0  0  0  0
  7 11  1  0  0  0  0
  8 12  2  0  0  0  0
  8 13  1  0  0  0  0
  9 14  1  0  0  0  0
 10 15  1  0  0  0  0
 13 16  1  0  0  0  0
 14 17  2  0  0  0  0
 14 18  1  0  0  0  0
 15 19  2  0  0  0  0
 15 20  1  0  0  0  0
 16 21  1  0  0  0  0
 17 22  1  0  0  0  0
 18 23  2  0  0  0  0
 19 24  1  0  0  0  0
 20 25  2  0  0  0  0
 21 26  2  0  0  0  0
 21 27  1  0  0  0  0
 22 28  2  0  0  0  0
 24 29  2  0  0  0  0
 26 30  1  0  0  0  0
 27 31  2  0  0  0  0
 30 32  2  0  0  0  0
  6  7  1  0  0  0  0
 23 28  1  0  0  0  0
 25 29  1  0  0  0  0
 31 32  1  0  0  0  0
M  END
>  <MolRegNo>
333595

>  <m>
=

>  <Value>
34

>  <Unit>
%

>  <Type>
Inhibition

>  <Ligand Efficiency>


>  <Binding Efficiency>


>  <Surface Efficiency>


>  <Assay Index>
254531

>  <Assay Category>


>  <Assay Organism>
SARS coronavirus

>  <Target ID>
20012

>  <Target Name>
SARS coronavirus 3C-like proteinase

>  <Target Organism>
SARS coronavirus

>  <Target Description>
Target is a single protein chain

>  <Sequence Accession>
P0C6U8

>  <Reference>
Bioorg. Med. Chem. Lett. 15 (24), 5365-5369 (2005)

>  <Pubmed ID>
16216498

>  <DOI>
10.1016/j.bmcl.2005.09.012

>  <InChI-Key>
SXCHLPYUCIEXAY-SEMXUUOESA-N

>  <Molecular Formula>
C27H28N2O3

>  <Monoisotopic Mass>
428.209993

>  <Druglikeness>
6.5262

$$$$
Compound 516
Actelion Java MolfileCreator 1.0

 29 32  0  0  0  0  0  0  0  0999 V2000
    0.0000   -0.0000   -0.0000 Cl  0  0  0  0  0  0  0  0  0  0  0  0
   -1.3034    0.7702   -0.0000 C   0  0  0  0  0  0  0  0  0  0  0  0
   -1.3153    2.2751   -0.0000 C   0  0  0  0  0  0  0  0  0  0  0  0
   -2.6068    0.0355   -0.0000 C   0  0  0  0  0  0  0  0  0  0  0  0
   -2.6305    3.0334   -0.0000 N   0  0  0  0  0  0  0  0  0  0  0  0
   -3.9103    0.8058   -0.0000 C   0  0  0  0  0  0  0  0  0  0  0  0
   -3.9340    2.2988   -0.0000 C   0  0  0  0  0  0  0  0  0  0  0  0
   -5.2255    0.0711   -0.0000 O   0  0  0  0  0  0  0  0  0  0  0  0
   -6.5289    0.8294   -0.0000 C   0  0  0  0  0  0  0  0  0  0  0  0
   -6.5408    2.3343   -0.0000 O   0  0  0  0  0  0  0  0  0  0  0  0
   -7.8442    0.0948   -0.0000 C   0  0  0  0  0  0  0  0  0  0  0  0
   -9.1476    0.8650   -0.0000 C   0  0  0  0  0  0  0  0  0  0  0  0
   -7.8561   -1.3864   -0.0000 C   0  0  0  0  0  0  0  0  0  0  0  0
  -10.4511    0.1303   -0.0000 C   0  0  0  0  0  0  0  0  0  0  0  0
   -9.1595   -2.1210   -0.0000 C   0  0  0  0  0  0  0  0  0  0  0  0
  -10.4629   -1.3627   -0.0000 C   0  0  0  0  0  0  0  0  0  0  0  0
  -11.8967    0.6043   -0.0000 C   0  0  0  0  0  0  0  0  0  0  0  0
  -11.9085   -1.8129   -0.0000 N   0  0  0  0  0  0  0  0  0  0  0  0
  -12.7972   -0.6043   -0.0000 C   0  0  0  0  0  0  0  0  0  0  0  0
  -12.3825   -3.2230   -0.0000 S   0  0  0  0  0  0  0  0  0  0  0  0
  -13.8281   -2.7846   -0.0000 O   0  0  0  0  0  0  0  0  0  0  0  0
  -10.9606   -3.6496   -0.0000 O   0  0  0  0  0  0  0  0  0  0  0  0
  -12.8565   -4.6331   -0.0000 C   0  0  0  0  0  0  0  0  0  0  0  0
  -14.3376   -4.9293   -0.0000 C   0  0  0  0  0  0  0  0  0  0  0  0
  -11.8730   -5.7232   -0.0000 C   0  0  0  0  0  0  0  0  0  0  0  0
  -14.8116   -6.3394   -0.0000 C   0  0  0  0  0  0  0  0  0  0  0  0
  -12.3351   -7.1333   -0.0000 C   0  0  0  0  0  0  0  0  0  0  0  0
  -13.8162   -7.4413   -0.0000 C   0  0  0  0  0  0  0  0  0  0  0  0
  -14.2902   -8.8514   -0.0000 C   0  0  0  0  0  0  0  0  0  0  0  0
  1  2  1  0  0  0  0
  2  3  2  0  0  0  0
  2  4  1  0  0  0  0
  3  5  1  0  0  0  0
  4  6  2  0  0  0  0
  5  7  2  0  0  0  0
  6  8  1  0  0  0  0
  8  9  1  0  0  0  0
  9 10  2  0  0  0  0
  9 11  1  0  0  0  0
 11 12  2  0  0  0  0
 11 13  1  0  0  0  0
 12 14  1  0  0  0  0
 13 15  2  0  0  0  0
 14 16  2  0  0  0  0
 14 17  1  0  0  0  0
 16 18  1  0  0  0  0
 17 19  2  0  0  0  0
 18 20  1  0  0  0  0
 20 21  2  0  0  0  0
 20 22  2  0  0  0  0
 20 23  1  0  0  0  0
 23 24  2  0  0  0  0
 23 25  1  0  0  0  0
 24 26  1  0  0  0  0
 25 27  2  0  0  0  0
 26 28  2  0  0  0  0
 28 29  1  0  0  0  0
  6  7  1  0  0  0  0
 15 16  1  0  0  0  0
 18 19  1  0  0  0  0
 27 28  1  0  0  0  0
M  END
>  <MolRegNo>
493965

>  <m>
=

>  <Value>
370

>  <Unit>
nM

>  <Type>
IC50

>  <Ligand Efficiency>


>  <Binding Efficiency>


>  <Surface Efficiency>


>  <Assay Index>
341535

>  <Assay Category>


>  <Assay Organism>
SARS coronavirus

>  <Target ID>
100499

>  <Target Name>
SARS coronavirus

>  <Target Organism>
SARS coronavirus

>  <Target Description>
Target is a complete organism

>  <Sequence Accession>


>  <Reference>
Bioorg. Med. Chem. Lett. 18 (20), 5684-5688 (2008)

>  <Pubmed ID>
18796354

>  <DOI>
10.1016/j.bmcl.2008.08.082

>  <InChI-Key>
SXUXZAGERSBZTC-UHFFFAOYSA-N

>  <Molecular Formula>
C21H15N2O4ClS

>  <Monoisotopic Mass>
426.044105

>  <Druglikeness>
-4.5192

$$$$
Compound 517
Actelion Java MolfileCreator 1.0

 20 22  0  0  0  0  0  0  0  0999 V2000
    0.0000   -0.0000   -0.0000 Br  0  0  0  0  0  0  0  0  0  0  0  0
    1.2825   -0.7363   -0.0000 C   0  0  0  0  0  0  0  0  0  0  0  0
    2.5651    0.0238   -0.0000 C   0  0  0  0  0  0  0  0  0  0  0  0
    1.2707   -2.2207   -0.0000 C   0  0  0  0  0  0  0  0  0  0  0  0
    3.8476   -0.7125   -0.0000 C   0  0  0  0  0  0  0  0  0  0  0  0
    2.5532    1.5319   -0.0000 C   0  0  0  0  0  0  0  0  0  0  0  0
    2.5532   -2.9570   -0.0000 C   0  0  0  0  0  0  0  0  0  0  0  0
    5.1302    0.0475   -0.0000 Br  0  0  0  0  0  0  0  0  0  0  0  0
    3.8357   -2.2088   -0.0000 C   0  0  0  0  0  0  0  0  0  0  0  0
    3.7407    2.4226   -0.0000 S   0  0  0  0  0  0  0  0  0  0  0  0
    1.3182    2.4107   -0.0000 N   0  0  0  0  0  0  0  0  0  0  0  0
    3.2657    3.8595   -0.0000 C   0  0  0  0  0  0  0  0  0  0  0  0
    1.7694    3.8476   -0.0000 C   0  0  0  0  0  0  0  0  0  0  0  0
   -0.2019    2.4226   -0.0000 C   0  0  0  0  0  0  0  0  0  0  0  0
    0.8788    5.0708   -0.0000 O   0  0  0  0  0  0  0  0  0  0  0  0
   -1.0688    3.6576   -0.0000 C   0  0  0  0  0  0  0  0  0  0  0  0
   -0.5938    5.0945   -0.0000 S   0  0  0  0  0  0  0  0  0  0  0  0
   -2.5770    3.7051   -0.0000 C   0  0  0  0  0  0  0  0  0  0  0  0
   -1.8051    6.0089   -0.0000 C   0  0  0  0  0  0  0  0  0  0  0  0
   -3.0282    5.1539   -0.0000 C   0  0  0  0  0  0  0  0  0  0  0  0
  1  2  1  0  0  0  0
  2  3  2  0  0  0  0
  2  4  1  0  0  0  0
  3  5  1  0  0  0  0
  3  6  1  0  0  0  0
  4  7  2  0  0  0  0
  5  8  1  0  0  0  0
  5  9  2  0  0  0  0
  6 10  1  0  0  0  0
  6 11  1  0  0  0  0
 10 12  1  0  0  0  0
 11 13  1  0  0  0  0
 11 14  1  0  0  0  0
 13 15  2  0  0  0  0
 14 16  1  0  0  0  0
 16 17  1  0  0  0  0
 16 18  2  0  0  0  0
 17 19  1  0  0  0  0
 18 20  1  0  0  0  0
  7  9  1  0  0  0  0
 12 13  1  0  0  0  0
 19 20  2  0  0  0  0
M  END
>  <MolRegNo>
452995

>  <m>
<=

>  <Value>
50

>  <Unit>
%

>  <Type>
Inhibition

>  <Ligand Efficiency>


>  <Binding Efficiency>


>  <Surface Efficiency>


>  <Assay Index>
406904

>  <Assay Category>


>  <Assay Organism>
SARS coronavirus

>  <Target ID>
101075

>  <Target Name>
Replicase polyprotein 1ab

>  <Target Organism>
SARS coronavirus

>  <Target Description>
Target is a single protein chain

>  <Sequence Accession>
P0C6X7

>  <Reference>
Bioorg. Med. Chem. Lett. 18 (23), 6110-6114 (2008)

>  <Pubmed ID>
18947995

>  <DOI>
10.1016/j.bmcl.2008.10.023

>  <InChI-Key>
SZIANFCRAWCVBM-UHFFFAOYSA-N

>  <Molecular Formula>
C14H11NOBr2S2

>  <Monoisotopic Mass>
430.864876

>  <Druglikeness>
3.2821

$$$$
Compound 518
Actelion Java MolfileCreator 1.0

 29 32  0  0  0  0  0  0  0  0999 V2000
    0.0000   -0.0000   -0.0000 Cl  0  0  0  0  0  0  0  0  0  0  0  0
    1.2904   -0.7408   -0.0000 C   0  0  0  0  0  0  0  0  0  0  0  0
    1.2785   -2.2463   -0.0000 C   0  0  0  0  0  0  0  0  0  0  0  0
    2.5809    0.0239   -0.0000 C   0  0  0  0  0  0  0  0  0  0  0  0
    2.5689   -2.9871   -0.0000 C   0  0  0  0  0  0  0  0  0  0  0  0
    3.8833   -0.7169   -0.0000 C   0  0  0  0  0  0  0  0  0  0  0  0
    3.8713   -2.2224   -0.0000 C   0  0  0  0  0  0  0  0  0  0  0  0
    5.1618   -2.9632   -0.0000 N   0  0  0  0  0  0  0  0  0  0  0  0
    6.4522   -2.1985   -0.0000 C   0  0  0  0  0  0  0  0  0  0  0  0
    6.4403   -0.6811   -0.0000 O   0  0  0  0  0  0  0  0  0  0  0  0
    7.7427   -2.9394   -0.0000 C   0  0  0  0  0  0  0  0  0  0  0  0
    9.0331   -2.1746   -0.0000 S   0  0  0  0  0  0  0  0  0  0  0  0
   10.3236   -2.9155   -0.0000 C   0  0  0  0  0  0  0  0  0  0  0  0
   11.6021   -2.1388   -0.0000 N   0  0  0  0  0  0  0  0  0  0  0  0
   10.2997   -4.4090   -0.0000 N   0  0  0  0  0  0  0  0  0  0  0  0
   12.8925   -2.8677   -0.0000 C   0  0  0  0  0  0  0  0  0  0  0  0
   11.5901   -5.1498   -0.0000 C   0  0  0  0  0  0  0  0  0  0  0  0
   14.1830   -2.0910   -0.0000 C   0  0  0  0  0  0  0  0  0  0  0  0
   12.8925   -4.3732   -0.0000 C   0  0  0  0  0  0  0  0  0  0  0  0
   14.3144   -0.5855   -0.0000 O   0  0  0  0  0  0  0  0  0  0  0  0
   15.5451   -2.6884   -0.0000 C   0  0  0  0  0  0  0  0  0  0  0  0
   15.7721   -0.2509   -0.0000 N   0  0  0  0  0  0  0  0  0  0  0  0
   16.5368   -1.5533   -0.0000 C   0  0  0  0  0  0  0  0  0  0  0  0
   18.0304   -1.6967   -0.0000 C   0  0  0  0  0  0  0  0  0  0  0  0
   18.6398   -3.0588   -0.0000 C   0  0  0  0  0  0  0  0  0  0  0  0
   18.8907   -0.4540   -0.0000 C   0  0  0  0  0  0  0  0  0  0  0  0
   20.1334   -3.2022   -0.0000 C   0  0  0  0  0  0  0  0  0  0  0  0
   20.3723   -0.5855   -0.0000 C   0  0  0  0  0  0  0  0  0  0  0  0
   21.0056   -1.9596   -0.0000 C   0  0  0  0  0  0  0  0  0  0  0  0
  1  2  1  0  0  0  0
  2  3  2  0  0  0  0
  2  4  1  0  0  0  0
  3  5  1  0  0  0  0
  4  6  2  0  0  0  0
  5  7  2  0  0  0  0
  7  8  1  0  0  0  0
  8  9  1  0  0  0  0
  9 10  2  0  0  0  0
  9 11  1  0  0  0  0
 11 12  1  0  0  0  0
 12 13  1  0  0  0  0
 13 14  2  0  0  0  0
 13 15  1  0  0  0  0
 14 16  1  0  0  0  0
 15 17  2  0  0  0  0
 16 18  1  0  0  0  0
 16 19  2  0  0  0  0
 18 20  1  0  0  0  0
 18 21  2  0  0  0  0
 20 22  1  0  0  0  0
 21 23  1  0  0  0  0
 23 24  1  0  0  0  0
 24 25  2  0  0  0  0
 24 26  1  0  0  0  0
 25 27  1  0  0  0  0
 26 28  2  0  0  0  0
 27 29  2  0  0  0  0
  6  7  1  0  0  0  0
 17 19  1  0  0  0  0
 22 23  2  0  0  0  0
 28 29  1  0  0  0  0
M  END
>  <MolRegNo>
348925

>  <m>
=

>  <Value>
6.6069e13

>  <Unit>
nM

>  <Type>
IC50

>  <Ligand Efficiency>


>  <Binding Efficiency>


>  <Surface Efficiency>


>  <Assay Index>
262926

>  <Assay Category>


>  <Assay Organism>
SARS coronavirus

>  <Target ID>
20012

>  <Target Name>
SARS coronavirus 3C-like proteinase

>  <Target Organism>
SARS coronavirus

>  <Target Description>
Target is a single protein chain

>  <Sequence Accession>
P0C6U8

>  <Reference>
J. Med. Chem. 49 (12), 3485-3495 (2006)

>  <Pubmed ID>
16759091

>  <DOI>
10.1021/jm050852f

>  <InChI-Key>
TUBDEXWKZSAMKH-UHFFFAOYSA-N

>  <Molecular Formula>
C21H15N4O2ClS

>  <Monoisotopic Mass>
422.060423

>  <Druglikeness>
3.3019

$$$$
Compound 519
Actelion Java MolfileCreator 1.0

 29 32  0  0  0  0  0  0  0  0999 V2000
    0.0000   -0.0000   -0.0000 Cl  0  0  0  0  0  0  0  0  0  0  0  0
    1.2904   -0.7408   -0.0000 C   0  0  0  0  0  0  0  0  0  0  0  0
    1.2785   -2.2463   -0.0000 C   0  0  0  0  0  0  0  0  0  0  0  0
    2.5809    0.0239   -0.0000 C   0  0  0  0  0  0  0  0  0  0  0  0
    2.5689   -2.9871   -0.0000 C   0  0  0  0  0  0  0  0  0  0  0  0
    3.8833   -0.7169   -0.0000 C   0  0  0  0  0  0  0  0  0  0  0  0
    3.8713   -2.2224   -0.0000 C   0  0  0  0  0  0  0  0  0  0  0  0
    5.1618   -2.9632   -0.0000 N   0  0  0  0  0  0  0  0  0  0  0  0
    6.4522   -2.1985   -0.0000 C   0  0  0  0  0  0  0  0  0  0  0  0
    6.4403   -0.6811   -0.0000 O   0  0  0  0  0  0  0  0  0  0  0  0
    7.7427   -2.9394   -0.0000 C   0  0  0  0  0  0  0  0  0  0  0  0
    9.0331   -2.1746   -0.0000 S   0  0  0  0  0  0  0  0  0  0  0  0
   10.3236   -2.9155   -0.0000 C   0  0  0  0  0  0  0  0  0  0  0  0
   11.6021   -2.1388   -0.0000 N   0  0  0  0  0  0  0  0  0  0  0  0
   10.2997   -4.4090   -0.0000 N   0  0  0  0  0  0  0  0  0  0  0  0
   12.8925   -2.8677   -0.0000 C   0  0  0  0  0  0  0  0  0  0  0  0
   11.5901   -5.1498   -0.0000 C   0  0  0  0  0  0  0  0  0  0  0  0
   14.1830   -2.0910   -0.0000 C   0  0  0  0  0  0  0  0  0  0  0  0
   12.8925   -4.3732   -0.0000 C   0  0  0  0  0  0  0  0  0  0  0  0
   14.3144   -0.5855   -0.0000 O   0  0  0  0  0  0  0  0  0  0  0  0
   15.5451   -2.6884   -0.0000 C   0  0  0  0  0  0  0  0  0  0  0  0
   15.7721   -0.2509   -0.0000 N   0  0  0  0  0  0  0  0  0  0  0  0
   16.5368   -1.5533   -0.0000 C   0  0  0  0  0  0  0  0  0  0  0  0
   18.0304   -1.6967   -0.0000 C   0  0  0  0  0  0  0  0  0  0  0  0
   18.6398   -3.0588   -0.0000 C   0  0  0  0  0  0  0  0  0  0  0  0
   18.8907   -0.4540   -0.0000 C   0  0  0  0  0  0  0  0  0  0  0  0
   20.1334   -3.2022   -0.0000 C   0  0  0  0  0  0  0  0  0  0  0  0
   20.3723   -0.5855   -0.0000 C   0  0  0  0  0  0  0  0  0  0  0  0
   21.0056   -1.9596   -0.0000 C   0  0  0  0  0  0  0  0  0  0  0  0
  1  2  1  0  0  0  0
  2  3  2  0  0  0  0
  2  4  1  0  0  0  0
  3  5  1  0  0  0  0
  4  6  2  0  0  0  0
  5  7  2  0  0  0  0
  7  8  1  0  0  0  0
  8  9  1  0  0  0  0
  9 10  2  0  0  0  0
  9 11  1  0  0  0  0
 11 12  1  0  0  0  0
 12 13  1  0  0  0  0
 13 14  2  0  0  0  0
 13 15  1  0  0  0  0
 14 16  1  0  0  0  0
 15 17  2  0  0  0  0
 16 18  1  0  0  0  0
 16 19  2  0  0  0  0
 18 20  1  0  0  0  0
 18 21  2  0  0  0  0
 20 22  1  0  0  0  0
 21 23  1  0  0  0  0
 23 24  1  0  0  0  0
 24 25  2  0  0  0  0
 24 26  1  0  0  0  0
 25 27  1  0  0  0  0
 26 28  2  0  0  0  0
 27 29  2  0  0  0  0
  6  7  1  0  0  0  0
 17 19  1  0  0  0  0
 22 23  2  0  0  0  0
 28 29  1  0  0  0  0
M  END
>  <MolRegNo>
348925

>  <m>
=

>  <Value>
15000

>  <Unit>
nM

>  <Type>
IC50

>  <Ligand Efficiency>
0.23

>  <Binding Efficiency>
11.41

>  <Surface Efficiency>
5.96

>  <Assay Index>
262926

>  <Assay Category>


>  <Assay Organism>
SARS coronavirus

>  <Target ID>
20012

>  <Target Name>
SARS coronavirus 3C-like proteinase

>  <Target Organism>
SARS coronavirus

>  <Target Description>
Target is a single protein chain

>  <Sequence Accession>
P0C6U8

>  <Reference>
J. Med. Chem. 49 (12), 3485-3495 (2006)

>  <Pubmed ID>
16759091

>  <DOI>
10.1021/jm050852f

>  <InChI-Key>
TUBDEXWKZSAMKH-UHFFFAOYSA-N

>  <Molecular Formula>
C21H15N4O2ClS

>  <Monoisotopic Mass>
422.060423

>  <Druglikeness>
3.3019

$$$$
Compound 520
Actelion Java MolfileCreator 1.0

 20 22  0  0  1  0  0  0  0  0999 V2000
    0.0000   -0.0000   -0.0000 Cl  0  0  0  0  0  0  0  0  0  0  0  0
   -1.2330   -0.8945   -0.0000 C   0  0  0  0  0  0  0  0  0  0  0  0
   -1.0880   -2.3331   -0.0000 N   0  0  0  0  0  0  0  0  0  0  0  0
   -2.6353   -0.2901   -0.0000 C   0  0  0  0  0  0  0  0  0  0  0  0
   -2.3331   -3.1793   -0.0000 C   0  0  0  0  0  0  0  0  0  0  0  0
   -3.1309    1.1121   -0.0000 N   0  0  0  0  0  0  0  0  0  0  0  0
   -3.8804   -1.1484   -0.0000 C   0  0  0  0  0  0  0  0  0  0  0  0
   -3.7474   -2.5748   -0.0000 N   0  0  0  0  0  0  0  0  0  0  0  0
   -2.1880   -4.6782   -0.0000 N   0  0  0  0  0  0  0  0  0  0  0  0
   -4.6661    1.1242   -0.0000 C   0  0  0  0  0  0  0  0  0  0  0  0
   -5.1255   -0.2780   -0.0000 N   0  0  0  0  0  0  0  0  0  0  0  0
   -6.5882   -0.7253   -0.0000 C   0  0  0  0  0  0  0  0  0  0  0  0
   -7.8454    0.1451   -0.0000 O   0  0  0  0  0  0  0  0  0  0  0  0
   -7.0717   -2.1034   -0.0000 C   0  0  0  0  0  0  0  0  0  0  0  0
   -9.0905   -0.7132   -0.0000 C   0  0  0  0  0  0  0  0  0  0  0  0
   -6.1893   -3.2760   -0.0000 O   0  0  0  0  0  0  0  0  0  0  0  0
   -8.6191   -2.0913   -0.0000 C   0  0  0  0  0  0  0  0  0  0  0  0
  -10.5532   -0.2418   -0.0000 C   0  0  0  0  0  0  0  0  0  0  0  0
   -9.5136   -3.2639   -0.0000 O   0  0  0  0  0  0  0  0  0  0  0  0
  -10.8917    1.1968   -0.0000 O   0  0  0  0  0  0  0  0  0  0  0  0
  1  2  1  0  0  0  0
  2  3  2  0  0  0  0
  2  4  1  0  0  0  0
  3  5  1  0  0  0  0
  4  6  1  0  0  0  0
  4  7  2  0  0  0  0
  5  8  2  0  0  0  0
  5  9  1  0  0  0  0
  6 10  2  0  0  0  0
  7 11  1  0  0  0  0
 12 11  1  1  0  0  0
 12 13  1  0  0  0  0
 12 14  1  0  0  0  0
 13 15  1  0  0  0  0
 14 16  1  6  0  0  0
 14 17  1  0  0  0  0
 15 18  1  1  0  0  0
 17 19  1  6  0  0  0
 18 20  1  0  0  0  0
  7  8  1  0  0  0  0
 10 11  1  0  0  0  0
 15 17  1  0  0  0  0
M  END
>  <MolRegNo>
386744

>  <m>
>

>  <Value>
3.0e5

>  <Unit>
nM

>  <Type>
IC50

>  <Ligand Efficiency>


>  <Binding Efficiency>


>  <Surface Efficiency>


>  <Assay Index>
287336

>  <Assay Category>


>  <Assay Organism>
SARS coronavirus

>  <Target ID>
100499

>  <Target Name>
SARS coronavirus

>  <Target Organism>
SARS coronavirus

>  <Target Description>
Target is a complete organism

>  <Sequence Accession>


>  <Reference>
Bioorg. Med. Chem. Lett. 17 (9), 2470-2473 (2007)

>  <Pubmed ID>
17336519

>  <DOI>
10.1016/j.bmcl.2007.02.026

>  <InChI-Key>
TXWHPSZYRUHEGT-BZKDHIKHSA-N

>  <Molecular Formula>
C10H12N5O4Cl

>  <Monoisotopic Mass>
301.057782

>  <Druglikeness>
-0.81043

$$$$
Compound 521
Actelion Java MolfileCreator 1.0

 19 21  0  0  0  0  0  0  0  0999 V2000
    0.0000   -0.0000   -0.0000 Cl  0  0  0  0  0  0  0  0  0  0  0  0
   -1.3007   -0.7331   -0.0000 C   0  0  0  0  0  0  0  0  0  0  0  0
   -1.3126   -2.2231   -0.0000 C   0  0  0  0  0  0  0  0  0  0  0  0
   -2.6015    0.0236   -0.0000 C   0  0  0  0  0  0  0  0  0  0  0  0
   -2.6251   -2.9562   -0.0000 N   0  0  0  0  0  0  0  0  0  0  0  0
   -3.9022   -0.7095   -0.0000 C   0  0  0  0  0  0  0  0  0  0  0  0
   -3.9258   -2.1994   -0.0000 C   0  0  0  0  0  0  0  0  0  0  0  0
   -5.2029    0.0473   -0.0000 O   0  0  0  0  0  0  0  0  0  0  0  0
   -6.5036   -0.6858   -0.0000 C   0  0  0  0  0  0  0  0  0  0  0  0
   -6.5155   -2.1639   -0.0000 O   0  0  0  0  0  0  0  0  0  0  0  0
   -7.8044    0.0709   -0.0000 C   0  0  0  0  0  0  0  0  0  0  0  0
   -9.0933   -0.6622   -0.0000 C   0  0  0  0  0  0  0  0  0  0  0  0
   -7.8044    1.5727   -0.0000 C   0  0  0  0  0  0  0  0  0  0  0  0
  -10.3940    0.0828   -0.0000 C   0  0  0  0  0  0  0  0  0  0  0  0
   -9.1051    2.3295   -0.0000 C   0  0  0  0  0  0  0  0  0  0  0  0
  -10.4058    1.5963   -0.0000 C   0  0  0  0  0  0  0  0  0  0  0  0
  -11.8248   -0.3784   -0.0000 C   0  0  0  0  0  0  0  0  0  0  0  0
  -11.8485    2.0693   -0.0000 N   0  0  0  0  0  0  0  0  0  0  0  0
  -12.7235    0.8396   -0.0000 C   0  0  0  0  0  0  0  0  0  0  0  0
  1  2  1  0  0  0  0
  2  3  2  0  0  0  0
  2  4  1  0  0  0  0
  3  5  1  0  0  0  0
  4  6  2  0  0  0  0
  5  7  2  0  0  0  0
  6  8  1  0  0  0  0
  8  9  1  0  0  0  0
  9 10  2  0  0  0  0
  9 11  1  0  0  0  0
 11 12  2  0  0  0  0
 11 13  1  0  0  0  0
 12 14  1  0  0  0  0
 13 15  2  0  0  0  0
 14 16  2  0  0  0  0
 14 17  1  0  0  0  0
 16 18  1  0  0  0  0
 17 19  2  0  0  0  0
  6  7  1  0  0  0  0
 15 16  1  0  0  0  0
 18 19  1  0  0  0  0
M  END
>  <MolRegNo>
487467

>  <m>
=

>  <Value>
310

>  <Unit>
nM

>  <Type>
IC50

>  <Ligand Efficiency>


>  <Binding Efficiency>


>  <Surface Efficiency>


>  <Assay Index>
341535

>  <Assay Category>


>  <Assay Organism>
SARS coronavirus

>  <Target ID>
100499

>  <Target Name>
SARS coronavirus

>  <Target Organism>
SARS coronavirus

>  <Target Description>
Target is a complete organism

>  <Sequence Accession>


>  <Reference>
Bioorg. Med. Chem. Lett. 18 (20), 5684-5688 (2008)

>  <Pubmed ID>
18796354

>  <DOI>
10.1016/j.bmcl.2008.08.082

>  <InChI-Key>
TYLOEMFGLQBHPE-UHFFFAOYSA-N

>  <Molecular Formula>
C14H9N2O2Cl

>  <Monoisotopic Mass>
272.035255

>  <Druglikeness>
-0.46366

$$$$
Compound 522
Actelion Java MolfileCreator 1.0

 23 25  0  0  0  0  0  0  0  0999 V2000
    0.0000   -0.0000   -0.0000 O   0  0  0  0  0  0  0  0  0  0  0  0
    1.2961   -0.7372   -0.0000 C   0  0  0  0  0  0  0  0  0  0  0  0
    2.5922    0.0238   -0.0000 C   0  0  0  0  0  0  0  0  0  0  0  0
    1.2961   -2.2354   -0.0000 C   0  0  0  0  0  0  0  0  0  0  0  0
    2.5803    1.5458   -0.0000 O   0  0  0  0  0  0  0  0  0  0  0  0
    3.8883   -0.7253   -0.0000 C   0  0  0  0  0  0  0  0  0  0  0  0
    2.5922   -2.9846   -0.0000 C   0  0  0  0  0  0  0  0  0  0  0  0
   -0.0119   -2.9846   -0.0000 C   0  0  0  0  0  0  0  0  0  0  0  0
    3.8764   -2.2236   -0.0000 C   0  0  0  0  0  0  0  0  0  0  0  0
    5.1843    0.0357   -0.0000 C   0  0  0  0  0  0  0  0  0  0  0  0
    2.5803   -4.4709   -0.0000 C   0  0  0  0  0  0  0  0  0  0  0  0
   -0.0238   -4.4828   -0.0000 C   0  0  0  0  0  0  0  0  0  0  0  0
   -1.3199   -2.2117   -0.0000 C   0  0  0  0  0  0  0  0  0  0  0  0
   -0.0357   -1.4626   -0.0000 C   0  0  0  0  0  0  0  0  0  0  0  0
    5.1606   -2.9608   -0.0000 O   0  0  0  0  0  0  0  0  0  0  0  0
    6.4685   -0.7016   -0.0000 C   0  0  0  0  0  0  0  0  0  0  0  0
    5.1724    1.5577   -0.0000 C   0  0  0  0  0  0  0  0  0  0  0  0
    1.2604   -5.2081   -0.0000 C   0  0  0  0  0  0  0  0  0  0  0  0
   -1.3318   -5.2200   -0.0000 C   0  0  0  0  0  0  0  0  0  0  0  0
   -2.6278   -2.9608   -0.0000 C   0  0  0  0  0  0  0  0  0  0  0  0
   -2.6397   -4.4590   -0.0000 C   0  0  0  0  0  0  0  0  0  0  0  0
   -2.1047   -6.5042   -0.0000 C   0  0  0  0  0  0  0  0  0  0  0  0
   -0.6064   -6.5042   -0.0000 C   0  0  0  0  0  0  0  0  0  0  0  0
  1  2  2  0  0  0  0
  2  3  1  0  0  0  0
  2  4  1  0  0  0  0
  3  5  1  0  0  0  0
  3  6  2  0  0  0  0
  4  7  2  0  0  0  0
  4  8  1  0  0  0  0
  6  9  1  0  0  0  0
  6 10  1  0  0  0  0
  7 11  1  0  0  0  0
  8 12  1  0  0  0  0
  8 13  1  0  0  0  0
  8 14  1  1  0  0  0
  9 15  2  0  0  0  0
 10 16  1  0  0  0  0
 10 17  1  0  0  0  0
 11 18  2  0  0  0  0
 12 19  1  0  0  0  0
 13 20  1  0  0  0  0
 19 21  1  0  0  0  0
 19 22  1  0  0  0  0
 19 23  1  0  0  0  0
  7  9  1  0  0  0  0
 12 18  1  1  0  0  0
 20 21  1  0  0  0  0
M  END
>  <MolRegNo>
387464

>  <m>


>  <Value>
0

>  <Unit>


>  <Type>
Activity

>  <Ligand Efficiency>


>  <Binding Efficiency>


>  <Surface Efficiency>


>  <Assay Index>
294025

>  <Assay Category>


>  <Assay Organism>
SARS coronavirus

>  <Target ID>
100499

>  <Target Name>
SARS coronavirus

>  <Target Organism>
SARS coronavirus

>  <Target Description>
Target is a complete organism

>  <Sequence Accession>


>  <Reference>
J. Med. Chem. 50 (17), 4087-4095 (2007)

>  <Pubmed ID>
17663539

>  <DOI>
10.1021/jm070295s

>  <InChI-Key>
UAZRHHCHUYOJQV-XCLFUZPHSA-N

>  <Molecular Formula>
C20H26O3

>  <Monoisotopic Mass>
314.188195

>  <Druglikeness>
-3.412

$$$$
Compound 523
Actelion Java MolfileCreator 1.0

 23 25  0  0  0  0  0  0  0  0999 V2000
    0.0000   -0.0000   -0.0000 O   0  0  0  0  0  0  0  0  0  0  0  0
    1.2961   -0.7372   -0.0000 C   0  0  0  0  0  0  0  0  0  0  0  0
    2.5922    0.0238   -0.0000 C   0  0  0  0  0  0  0  0  0  0  0  0
    1.2961   -2.2354   -0.0000 C   0  0  0  0  0  0  0  0  0  0  0  0
    2.5803    1.5458   -0.0000 O   0  0  0  0  0  0  0  0  0  0  0  0
    3.8883   -0.7253   -0.0000 C   0  0  0  0  0  0  0  0  0  0  0  0
    2.5922   -2.9846   -0.0000 C   0  0  0  0  0  0  0  0  0  0  0  0
   -0.0119   -2.9846   -0.0000 C   0  0  0  0  0  0  0  0  0  0  0  0
    3.8764   -2.2236   -0.0000 C   0  0  0  0  0  0  0  0  0  0  0  0
    5.1843    0.0357   -0.0000 C   0  0  0  0  0  0  0  0  0  0  0  0
    2.5803   -4.4709   -0.0000 C   0  0  0  0  0  0  0  0  0  0  0  0
   -0.0238   -4.4828   -0.0000 C   0  0  0  0  0  0  0  0  0  0  0  0
   -1.3199   -2.2117   -0.0000 C   0  0  0  0  0  0  0  0  0  0  0  0
   -0.0357   -1.4626   -0.0000 C   0  0  0  0  0  0  0  0  0  0  0  0
    5.1606   -2.9608   -0.0000 O   0  0  0  0  0  0  0  0  0  0  0  0
    6.4685   -0.7016   -0.0000 C   0  0  0  0  0  0  0  0  0  0  0  0
    5.1724    1.5577   -0.0000 C   0  0  0  0  0  0  0  0  0  0  0  0
    1.2604   -5.2081   -0.0000 C   0  0  0  0  0  0  0  0  0  0  0  0
   -1.3318   -5.2200   -0.0000 C   0  0  0  0  0  0  0  0  0  0  0  0
   -2.6278   -2.9608   -0.0000 C   0  0  0  0  0  0  0  0  0  0  0  0
   -2.6397   -4.4590   -0.0000 C   0  0  0  0  0  0  0  0  0  0  0  0
   -2.1047   -6.5042   -0.0000 C   0  0  0  0  0  0  0  0  0  0  0  0
   -0.6064   -6.5042   -0.0000 C   0  0  0  0  0  0  0  0  0  0  0  0
  1  2  2  0  0  0  0
  2  3  1  0  0  0  0
  2  4  1  0  0  0  0
  3  5  1  0  0  0  0
  3  6  2  0  0  0  0
  4  7  2  0  0  0  0
  4  8  1  0  0  0  0
  6  9  1  0  0  0  0
  6 10  1  0  0  0  0
  7 11  1  0  0  0  0
  8 12  1  0  0  0  0
  8 13  1  0  0  0  0
  8 14  1  1  0  0  0
  9 15  2  0  0  0  0
 10 16  1  0  0  0  0
 10 17  1  0  0  0  0
 11 18  2  0  0  0  0
 12 19  1  0  0  0  0
 13 20  1  0  0  0  0
 19 21  1  0  0  0  0
 19 22  1  0  0  0  0
 19 23  1  0  0  0  0
  7  9  1  0  0  0  0
 12 18  1  1  0  0  0
 20 21  1  0  0  0  0
M  END
>  <MolRegNo>
387464

>  <m>


>  <Value>
0

>  <Unit>


>  <Type>
Activity

>  <Ligand Efficiency>


>  <Binding Efficiency>


>  <Surface Efficiency>


>  <Assay Index>
294024

>  <Assay Category>


>  <Assay Organism>
SARS coronavirus

>  <Target ID>
100499

>  <Target Name>
SARS coronavirus

>  <Target Organism>
SARS coronavirus

>  <Target Description>
Target is a complete organism

>  <Sequence Accession>


>  <Reference>
J. Med. Chem. 50 (17), 4087-4095 (2007)

>  <Pubmed ID>
17663539

>  <DOI>
10.1021/jm070295s

>  <InChI-Key>
UAZRHHCHUYOJQV-XCLFUZPHSA-N

>  <Molecular Formula>
C20H26O3

>  <Monoisotopic Mass>
314.188195

>  <Druglikeness>
-3.412

$$$$
Compound 524
Actelion Java MolfileCreator 1.0

 23 25  0  0  0  0  0  0  0  0999 V2000
    0.0000   -0.0000   -0.0000 O   0  0  0  0  0  0  0  0  0  0  0  0
    1.2961   -0.7372   -0.0000 C   0  0  0  0  0  0  0  0  0  0  0  0
    2.5922    0.0238   -0.0000 C   0  0  0  0  0  0  0  0  0  0  0  0
    1.2961   -2.2354   -0.0000 C   0  0  0  0  0  0  0  0  0  0  0  0
    2.5803    1.5458   -0.0000 O   0  0  0  0  0  0  0  0  0  0  0  0
    3.8883   -0.7253   -0.0000 C   0  0  0  0  0  0  0  0  0  0  0  0
    2.5922   -2.9846   -0.0000 C   0  0  0  0  0  0  0  0  0  0  0  0
   -0.0119   -2.9846   -0.0000 C   0  0  0  0  0  0  0  0  0  0  0  0
    3.8764   -2.2236   -0.0000 C   0  0  0  0  0  0  0  0  0  0  0  0
    5.1843    0.0357   -0.0000 C   0  0  0  0  0  0  0  0  0  0  0  0
    2.5803   -4.4709   -0.0000 C   0  0  0  0  0  0  0  0  0  0  0  0
   -0.0238   -4.4828   -0.0000 C   0  0  0  0  0  0  0  0  0  0  0  0
   -1.3199   -2.2117   -0.0000 C   0  0  0  0  0  0  0  0  0  0  0  0
   -0.0357   -1.4626   -0.0000 C   0  0  0  0  0  0  0  0  0  0  0  0
    5.1606   -2.9608   -0.0000 O   0  0  0  0  0  0  0  0  0  0  0  0
    6.4685   -0.7016   -0.0000 C   0  0  0  0  0  0  0  0  0  0  0  0
    5.1724    1.5577   -0.0000 C   0  0  0  0  0  0  0  0  0  0  0  0
    1.2604   -5.2081   -0.0000 C   0  0  0  0  0  0  0  0  0  0  0  0
   -1.3318   -5.2200   -0.0000 C   0  0  0  0  0  0  0  0  0  0  0  0
   -2.6278   -2.9608   -0.0000 C   0  0  0  0  0  0  0  0  0  0  0  0
   -2.6397   -4.4590   -0.0000 C   0  0  0  0  0  0  0  0  0  0  0  0
   -2.1047   -6.5042   -0.0000 C   0  0  0  0  0  0  0  0  0  0  0  0
   -0.6064   -6.5042   -0.0000 C   0  0  0  0  0  0  0  0  0  0  0  0
  1  2  2  0  0  0  0
  2  3  1  0  0  0  0
  2  4  1  0  0  0  0
  3  5  1  0  0  0  0
  3  6  2  0  0  0  0
  4  7  2  0  0  0  0
  4  8  1  0  0  0  0
  6  9  1  0  0  0  0
  6 10  1  0  0  0  0
  7 11  1  0  0  0  0
  8 12  1  0  0  0  0
  8 13  1  0  0  0  0
  8 14  1  1  0  0  0
  9 15  2  0  0  0  0
 10 16  1  0  0  0  0
 10 17  1  0  0  0  0
 11 18  2  0  0  0  0
 12 19  1  0  0  0  0
 13 20  1  0  0  0  0
 19 21  1  0  0  0  0
 19 22  1  0  0  0  0
 19 23  1  0  0  0  0
  7  9  1  0  0  0  0
 12 18  1  1  0  0  0
 20 21  1  0  0  0  0
M  END
>  <MolRegNo>
387464

>  <m>
=

>  <Value>
5550

>  <Unit>
nM

>  <Type>
EC50

>  <Ligand Efficiency>


>  <Binding Efficiency>


>  <Surface Efficiency>


>  <Assay Index>
294026

>  <Assay Category>


>  <Assay Organism>
SARS coronavirus

>  <Target ID>
100499

>  <Target Name>
SARS coronavirus

>  <Target Organism>
SARS coronavirus

>  <Target Description>
Target is a complete organism

>  <Sequence Accession>


>  <Reference>
J. Med. Chem. 50 (17), 4087-4095 (2007)

>  <Pubmed ID>
17663539

>  <DOI>
10.1021/jm070295s

>  <InChI-Key>
UAZRHHCHUYOJQV-XCLFUZPHSA-N

>  <Molecular Formula>
C20H26O3

>  <Monoisotopic Mass>
314.188195

>  <Druglikeness>
-3.412

$$$$
Compound 525
Actelion Java MolfileCreator 1.0

 23 25  0  0  0  0  0  0  0  0999 V2000
    0.0000   -0.0000   -0.0000 O   0  0  0  0  0  0  0  0  0  0  0  0
    1.2961   -0.7372   -0.0000 C   0  0  0  0  0  0  0  0  0  0  0  0
    2.5922    0.0238   -0.0000 C   0  0  0  0  0  0  0  0  0  0  0  0
    1.2961   -2.2354   -0.0000 C   0  0  0  0  0  0  0  0  0  0  0  0
    2.5803    1.5458   -0.0000 O   0  0  0  0  0  0  0  0  0  0  0  0
    3.8883   -0.7253   -0.0000 C   0  0  0  0  0  0  0  0  0  0  0  0
    2.5922   -2.9846   -0.0000 C   0  0  0  0  0  0  0  0  0  0  0  0
   -0.0119   -2.9846   -0.0000 C   0  0  0  0  0  0  0  0  0  0  0  0
    3.8764   -2.2236   -0.0000 C   0  0  0  0  0  0  0  0  0  0  0  0
    5.1843    0.0357   -0.0000 C   0  0  0  0  0  0  0  0  0  0  0  0
    2.5803   -4.4709   -0.0000 C   0  0  0  0  0  0  0  0  0  0  0  0
   -0.0238   -4.4828   -0.0000 C   0  0  0  0  0  0  0  0  0  0  0  0
   -1.3199   -2.2117   -0.0000 C   0  0  0  0  0  0  0  0  0  0  0  0
   -0.0357   -1.4626   -0.0000 C   0  0  0  0  0  0  0  0  0  0  0  0
    5.1606   -2.9608   -0.0000 O   0  0  0  0  0  0  0  0  0  0  0  0
    6.4685   -0.7016   -0.0000 C   0  0  0  0  0  0  0  0  0  0  0  0
    5.1724    1.5577   -0.0000 C   0  0  0  0  0  0  0  0  0  0  0  0
    1.2604   -5.2081   -0.0000 C   0  0  0  0  0  0  0  0  0  0  0  0
   -1.3318   -5.2200   -0.0000 C   0  0  0  0  0  0  0  0  0  0  0  0
   -2.6278   -2.9608   -0.0000 C   0  0  0  0  0  0  0  0  0  0  0  0
   -2.6397   -4.4590   -0.0000 C   0  0  0  0  0  0  0  0  0  0  0  0
   -2.1047   -6.5042   -0.0000 C   0  0  0  0  0  0  0  0  0  0  0  0
   -0.6064   -6.5042   -0.0000 C   0  0  0  0  0  0  0  0  0  0  0  0
  1  2  2  0  0  0  0
  2  3  1  0  0  0  0
  2  4  1  0  0  0  0
  3  5  1  0  0  0  0
  3  6  2  0  0  0  0
  4  7  2  0  0  0  0
  4  8  1  0  0  0  0
  6  9  1  0  0  0  0
  6 10  1  0  0  0  0
  7 11  1  0  0  0  0
  8 12  1  0  0  0  0
  8 13  1  0  0  0  0
  8 14  1  1  0  0  0
  9 15  2  0  0  0  0
 10 16  1  0  0  0  0
 10 17  1  0  0  0  0
 11 18  2  0  0  0  0
 12 19  1  0  0  0  0
 13 20  1  0  0  0  0
 19 21  1  0  0  0  0
 19 22  1  0  0  0  0
 19 23  1  0  0  0  0
  7  9  1  0  0  0  0
 12 18  1  1  0  0  0
 20 21  1  0  0  0  0
M  END
>  <MolRegNo>
387464

>  <m>
<

>  <Value>
25

>  <Unit>
%

>  <Type>
Inhibition

>  <Ligand Efficiency>


>  <Binding Efficiency>


>  <Surface Efficiency>


>  <Assay Index>
294022

>  <Assay Category>


>  <Assay Organism>
SARS coronavirus

>  <Target ID>
100499

>  <Target Name>
SARS coronavirus

>  <Target Organism>
SARS coronavirus

>  <Target Description>
Target is a complete organism

>  <Sequence Accession>


>  <Reference>
J. Med. Chem. 50 (17), 4087-4095 (2007)

>  <Pubmed ID>
17663539

>  <DOI>
10.1021/jm070295s

>  <InChI-Key>
UAZRHHCHUYOJQV-XCLFUZPHSA-N

>  <Molecular Formula>
C20H26O3

>  <Monoisotopic Mass>
314.188195

>  <Druglikeness>
-3.412

$$$$
Compound 526
Actelion Java MolfileCreator 1.0

 23 25  0  0  0  0  0  0  0  0999 V2000
    0.0000   -0.0000   -0.0000 O   0  0  0  0  0  0  0  0  0  0  0  0
    1.2961   -0.7372   -0.0000 C   0  0  0  0  0  0  0  0  0  0  0  0
    2.5922    0.0238   -0.0000 C   0  0  0  0  0  0  0  0  0  0  0  0
    1.2961   -2.2354   -0.0000 C   0  0  0  0  0  0  0  0  0  0  0  0
    2.5803    1.5458   -0.0000 O   0  0  0  0  0  0  0  0  0  0  0  0
    3.8883   -0.7253   -0.0000 C   0  0  0  0  0  0  0  0  0  0  0  0
    2.5922   -2.9846   -0.0000 C   0  0  0  0  0  0  0  0  0  0  0  0
   -0.0119   -2.9846   -0.0000 C   0  0  0  0  0  0  0  0  0  0  0  0
    3.8764   -2.2236   -0.0000 C   0  0  0  0  0  0  0  0  0  0  0  0
    5.1843    0.0357   -0.0000 C   0  0  0  0  0  0  0  0  0  0  0  0
    2.5803   -4.4709   -0.0000 C   0  0  0  0  0  0  0  0  0  0  0  0
   -0.0238   -4.4828   -0.0000 C   0  0  0  0  0  0  0  0  0  0  0  0
   -1.3199   -2.2117   -0.0000 C   0  0  0  0  0  0  0  0  0  0  0  0
   -0.0357   -1.4626   -0.0000 C   0  0  0  0  0  0  0  0  0  0  0  0
    5.1606   -2.9608   -0.0000 O   0  0  0  0  0  0  0  0  0  0  0  0
    6.4685   -0.7016   -0.0000 C   0  0  0  0  0  0  0  0  0  0  0  0
    5.1724    1.5577   -0.0000 C   0  0  0  0  0  0  0  0  0  0  0  0
    1.2604   -5.2081   -0.0000 C   0  0  0  0  0  0  0  0  0  0  0  0
   -1.3318   -5.2200   -0.0000 C   0  0  0  0  0  0  0  0  0  0  0  0
   -2.6278   -2.9608   -0.0000 C   0  0  0  0  0  0  0  0  0  0  0  0
   -2.6397   -4.4590   -0.0000 C   0  0  0  0  0  0  0  0  0  0  0  0
   -2.1047   -6.5042   -0.0000 C   0  0  0  0  0  0  0  0  0  0  0  0
   -0.6064   -6.5042   -0.0000 C   0  0  0  0  0  0  0  0  0  0  0  0
  1  2  2  0  0  0  0
  2  3  1  0  0  0  0
  2  4  1  0  0  0  0
  3  5  1  0  0  0  0
  3  6  2  0  0  0  0
  4  7  2  0  0  0  0
  4  8  1  0  0  0  0
  6  9  1  0  0  0  0
  6 10  1  0  0  0  0
  7 11  1  0  0  0  0
  8 12  1  0  0  0  0
  8 13  1  0  0  0  0
  8 14  1  1  0  0  0
  9 15  2  0  0  0  0
 10 16  1  0  0  0  0
 10 17  1  0  0  0  0
 11 18  2  0  0  0  0
 12 19  1  0  0  0  0
 13 20  1  0  0  0  0
 19 21  1  0  0  0  0
 19 22  1  0  0  0  0
 19 23  1  0  0  0  0
  7  9  1  0  0  0  0
 12 18  1  1  0  0  0
 20 21  1  0  0  0  0
M  END
>  <MolRegNo>
387464

>  <m>
=

>  <Value>
25

>  <Unit>
%

>  <Type>
Inhibition

>  <Ligand Efficiency>


>  <Binding Efficiency>


>  <Surface Efficiency>


>  <Assay Index>
294023

>  <Assay Category>


>  <Assay Organism>
SARS coronavirus

>  <Target ID>
100499

>  <Target Name>
SARS coronavirus

>  <Target Organism>
SARS coronavirus

>  <Target Description>
Target is a complete organism

>  <Sequence Accession>


>  <Reference>
J. Med. Chem. 50 (17), 4087-4095 (2007)

>  <Pubmed ID>
17663539

>  <DOI>
10.1021/jm070295s

>  <InChI-Key>
UAZRHHCHUYOJQV-XCLFUZPHSA-N

>  <Molecular Formula>
C20H26O3

>  <Monoisotopic Mass>
314.188195

>  <Druglikeness>
-3.412

$$$$
Compound 527
Actelion Java MolfileCreator 1.0

 31 31  0  0  1  0  0  0  0  0999 V2000
    0.0000   -0.0000   -0.0000 F   0  0  0  0  0  0  0  0  0  0  0  0
   -1.3046    0.7590   -0.0000 C   0  0  0  0  0  0  0  0  0  0  0  0
   -2.6092    0.0237   -0.0000 C   0  0  0  0  0  0  0  0  0  0  0  0
   -2.6211   -1.4588   -0.0000 O   0  0  0  0  0  0  0  0  0  0  0  0
   -3.9138    0.7828   -0.0000 C   0  0  0  0  0  0  0  0  0  0  0  0
   -5.2184    0.0474   -0.0000 N   0  0  0  0  0  0  0  0  0  0  0  0
   -3.9257    2.2890   -0.0000 C   0  0  0  0  0  0  0  0  0  0  0  0
   -6.5230    0.8065   -0.0000 C   0  0  0  0  0  0  0  0  0  0  0  0
   -2.6448    3.0480   -0.0000 C   0  0  0  0  0  0  0  0  0  0  0  0
   -6.5349    2.3127   -0.0000 O   0  0  0  0  0  0  0  0  0  0  0  0
   -7.8276    0.0712   -0.0000 C   0  0  0  0  0  0  0  0  0  0  0  0
   -2.6567    4.5543   -0.0000 C   0  0  0  0  0  0  0  0  0  0  0  0
   -9.1322    0.8302   -0.0000 N   0  0  0  0  0  0  0  0  0  0  0  0
   -7.8395   -1.4113   -0.0000 C   0  0  0  0  0  0  0  0  0  0  0  0
   -3.9613    5.3133   -0.0000 O   0  0  0  0  0  0  0  0  0  0  0  0
   -1.3758    5.3133   -0.0000 N   0  0  0  0  0  0  0  0  0  0  0  0
  -10.4369    0.0949   -0.0000 C   0  0  0  0  0  0  0  0  0  0  0  0
   -6.5586   -2.1467   -0.0000 C   0  0  0  0  0  0  0  0  0  0  0  0
   -0.0949    4.5780   -0.0000 C   0  0  0  0  0  0  0  0  0  0  0  0
   -1.3876    6.8195   -0.0000 C   0  0  0  0  0  0  0  0  0  0  0  0
  -10.4487   -1.3876   -0.0000 O   0  0  0  0  0  0  0  0  0  0  0  0
  -11.7415    0.8539   -0.0000 O   0  0  0  0  0  0  0  0  0  0  0  0
   -6.5705   -3.6292   -0.0000 C   0  0  0  0  0  0  0  0  0  0  0  0
   -5.2777   -1.3876   -0.0000 C   0  0  0  0  0  0  0  0  0  0  0  0
  -13.0461    0.1186   -0.0000 C   0  0  0  0  0  0  0  0  0  0  0  0
  -14.3507    0.8776   -0.0000 C   0  0  0  0  0  0  0  0  0  0  0  0
  -15.6671    0.1423   -0.0000 C   0  0  0  0  0  0  0  0  0  0  0  0
  -14.3625    2.3957   -0.0000 C   0  0  0  0  0  0  0  0  0  0  0  0
  -16.9718    0.9014   -0.0000 C   0  0  0  0  0  0  0  0  0  0  0  0
  -15.6671    3.1548   -0.0000 C   0  0  0  0  0  0  0  0  0  0  0  0
  -16.9836    2.4195   -0.0000 C   0  0  0  0  0  0  0  0  0  0  0  0
  1  2  1  0  0  0  0
  2  3  1  0  0  0  0
  3  4  2  0  0  0  0
  3  5  1  0  0  0  0
  5  6  1  0  0  0  0
  5  7  1  0  0  0  0
  6  8  1  0  0  0  0
  7  9  1  0  0  0  0
  8 10  2  0  0  0  0
  8 11  1  0  0  0  0
  9 12  1  0  0  0  0
 11 13  1  6  0  0  0
 11 14  1  0  0  0  0
 12 15  2  0  0  0  0
 12 16  1  0  0  0  0
 13 17  1  0  0  0  0
 14 18  1  0  0  0  0
 16 19  1  0  0  0  0
 16 20  1  0  0  0  0
 17 21  2  0  0  0  0
 17 22  1  0  0  0  0
 18 23  1  0  0  0  0
 18 24  1  0  0  0  0
 22 25  1  0  0  0  0
 25 26  1  0  0  0  0
 26 27  2  0  0  0  0
 26 28  1  0  0  0  0
 27 29  1  0  0  0  0
 28 30  2  0  0  0  0
 29 31  2  0  0  0  0
 30 31  1  0  0  0  0
M  END
>  <MolRegNo>
338209

>  <m>
=

>  <Value>
3600

>  <Unit>
nM

>  <Type>
EC50

>  <Ligand Efficiency>


>  <Binding Efficiency>


>  <Surface Efficiency>


>  <Assay Index>
256674

>  <Assay Category>


>  <Assay Organism>
SARS coronavirus

>  <Target ID>
100499

>  <Target Name>
SARS coronavirus

>  <Target Organism>
SARS coronavirus

>  <Target Description>
Target is a complete organism

>  <Sequence Accession>


>  <Reference>
J. Med. Chem. 49 (3), 1198-1201 (2006)

>  <Pubmed ID>
16451084

>  <DOI>
10.1021/jm0507678

>  <InChI-Key>
UBPKJZUVHMCXAZ-ZVAWYAOSSA-N

>  <Molecular Formula>
C22H32N3O5F

>  <Monoisotopic Mass>
437.232600

>  <Druglikeness>
-11.947

$$$$
Compound 528
Actelion Java MolfileCreator 1.0

 31 31  0  0  1  0  0  0  0  0999 V2000
    0.0000   -0.0000   -0.0000 F   0  0  0  0  0  0  0  0  0  0  0  0
   -1.3046    0.7590   -0.0000 C   0  0  0  0  0  0  0  0  0  0  0  0
   -2.6092    0.0237   -0.0000 C   0  0  0  0  0  0  0  0  0  0  0  0
   -2.6211   -1.4588   -0.0000 O   0  0  0  0  0  0  0  0  0  0  0  0
   -3.9138    0.7828   -0.0000 C   0  0  0  0  0  0  0  0  0  0  0  0
   -5.2184    0.0474   -0.0000 N   0  0  0  0  0  0  0  0  0  0  0  0
   -3.9257    2.2890   -0.0000 C   0  0  0  0  0  0  0  0  0  0  0  0
   -6.5230    0.8065   -0.0000 C   0  0  0  0  0  0  0  0  0  0  0  0
   -2.6448    3.0480   -0.0000 C   0  0  0  0  0  0  0  0  0  0  0  0
   -6.5349    2.3127   -0.0000 O   0  0  0  0  0  0  0  0  0  0  0  0
   -7.8276    0.0712   -0.0000 C   0  0  0  0  0  0  0  0  0  0  0  0
   -2.6567    4.5543   -0.0000 C   0  0  0  0  0  0  0  0  0  0  0  0
   -9.1322    0.8302   -0.0000 N   0  0  0  0  0  0  0  0  0  0  0  0
   -7.8395   -1.4113   -0.0000 C   0  0  0  0  0  0  0  0  0  0  0  0
   -3.9613    5.3133   -0.0000 O   0  0  0  0  0  0  0  0  0  0  0  0
   -1.3758    5.3133   -0.0000 N   0  0  0  0  0  0  0  0  0  0  0  0
  -10.4369    0.0949   -0.0000 C   0  0  0  0  0  0  0  0  0  0  0  0
   -6.5586   -2.1467   -0.0000 C   0  0  0  0  0  0  0  0  0  0  0  0
   -0.0949    4.5780   -0.0000 C   0  0  0  0  0  0  0  0  0  0  0  0
   -1.3876    6.8195   -0.0000 C   0  0  0  0  0  0  0  0  0  0  0  0
  -10.4487   -1.3876   -0.0000 O   0  0  0  0  0  0  0  0  0  0  0  0
  -11.7415    0.8539   -0.0000 O   0  0  0  0  0  0  0  0  0  0  0  0
   -6.5705   -3.6292   -0.0000 C   0  0  0  0  0  0  0  0  0  0  0  0
   -5.2777   -1.3876   -0.0000 C   0  0  0  0  0  0  0  0  0  0  0  0
  -13.0461    0.1186   -0.0000 C   0  0  0  0  0  0  0  0  0  0  0  0
  -14.3507    0.8776   -0.0000 C   0  0  0  0  0  0  0  0  0  0  0  0
  -15.6671    0.1423   -0.0000 C   0  0  0  0  0  0  0  0  0  0  0  0
  -14.3625    2.3957   -0.0000 C   0  0  0  0  0  0  0  0  0  0  0  0
  -16.9718    0.9014   -0.0000 C   0  0  0  0  0  0  0  0  0  0  0  0
  -15.6671    3.1548   -0.0000 C   0  0  0  0  0  0  0  0  0  0  0  0
  -16.9836    2.4195   -0.0000 C   0  0  0  0  0  0  0  0  0  0  0  0
  1  2  1  0  0  0  0
  2  3  1  0  0  0  0
  3  4  2  0  0  0  0
  3  5  1  0  0  0  0
  5  6  1  0  0  0  0
  5  7  1  0  0  0  0
  6  8  1  0  0  0  0
  7  9  1  0  0  0  0
  8 10  2  0  0  0  0
  8 11  1  0  0  0  0
  9 12  1  0  0  0  0
 11 13  1  6  0  0  0
 11 14  1  0  0  0  0
 12 15  2  0  0  0  0
 12 16  1  0  0  0  0
 13 17  1  0  0  0  0
 14 18  1  0  0  0  0
 16 19  1  0  0  0  0
 16 20  1  0  0  0  0
 17 21  2  0  0  0  0
 17 22  1  0  0  0  0
 18 23  1  0  0  0  0
 18 24  1  0  0  0  0
 22 25  1  0  0  0  0
 25 26  1  0  0  0  0
 26 27  2  0  0  0  0
 26 28  1  0  0  0  0
 27 29  1  0  0  0  0
 28 30  2  0  0  0  0
 29 31  2  0  0  0  0
 30 31  1  0  0  0  0
M  END
>  <MolRegNo>
338209

>  <m>
=

>  <Value>
2500

>  <Unit>
nM

>  <Type>
EC50

>  <Ligand Efficiency>


>  <Binding Efficiency>


>  <Surface Efficiency>


>  <Assay Index>
256675

>  <Assay Category>


>  <Assay Organism>
SARS coronavirus

>  <Target ID>
100499

>  <Target Name>
SARS coronavirus

>  <Target Organism>
SARS coronavirus

>  <Target Description>
Target is a complete organism

>  <Sequence Accession>


>  <Reference>
J. Med. Chem. 49 (3), 1198-1201 (2006)

>  <Pubmed ID>
16451084

>  <DOI>
10.1021/jm0507678

>  <InChI-Key>
UBPKJZUVHMCXAZ-ZVAWYAOSSA-N

>  <Molecular Formula>
C22H32N3O5F

>  <Monoisotopic Mass>
437.232600

>  <Druglikeness>
-11.947

$$$$
Compound 529
Actelion Java MolfileCreator 1.0

 31 31  0  0  1  0  0  0  0  0999 V2000
    0.0000   -0.0000   -0.0000 F   0  0  0  0  0  0  0  0  0  0  0  0
   -1.3046    0.7590   -0.0000 C   0  0  0  0  0  0  0  0  0  0  0  0
   -2.6092    0.0237   -0.0000 C   0  0  0  0  0  0  0  0  0  0  0  0
   -2.6211   -1.4588   -0.0000 O   0  0  0  0  0  0  0  0  0  0  0  0
   -3.9138    0.7828   -0.0000 C   0  0  0  0  0  0  0  0  0  0  0  0
   -5.2184    0.0474   -0.0000 N   0  0  0  0  0  0  0  0  0  0  0  0
   -3.9257    2.2890   -0.0000 C   0  0  0  0  0  0  0  0  0  0  0  0
   -6.5230    0.8065   -0.0000 C   0  0  0  0  0  0  0  0  0  0  0  0
   -2.6448    3.0480   -0.0000 C   0  0  0  0  0  0  0  0  0  0  0  0
   -6.5349    2.3127   -0.0000 O   0  0  0  0  0  0  0  0  0  0  0  0
   -7.8276    0.0712   -0.0000 C   0  0  0  0  0  0  0  0  0  0  0  0
   -2.6567    4.5543   -0.0000 C   0  0  0  0  0  0  0  0  0  0  0  0
   -9.1322    0.8302   -0.0000 N   0  0  0  0  0  0  0  0  0  0  0  0
   -7.8395   -1.4113   -0.0000 C   0  0  0  0  0  0  0  0  0  0  0  0
   -3.9613    5.3133   -0.0000 O   0  0  0  0  0  0  0  0  0  0  0  0
   -1.3758    5.3133   -0.0000 N   0  0  0  0  0  0  0  0  0  0  0  0
  -10.4369    0.0949   -0.0000 C   0  0  0  0  0  0  0  0  0  0  0  0
   -6.5586   -2.1467   -0.0000 C   0  0  0  0  0  0  0  0  0  0  0  0
   -0.0949    4.5780   -0.0000 C   0  0  0  0  0  0  0  0  0  0  0  0
   -1.3876    6.8195   -0.0000 C   0  0  0  0  0  0  0  0  0  0  0  0
  -10.4487   -1.3876   -0.0000 O   0  0  0  0  0  0  0  0  0  0  0  0
  -11.7415    0.8539   -0.0000 O   0  0  0  0  0  0  0  0  0  0  0  0
   -6.5705   -3.6292   -0.0000 C   0  0  0  0  0  0  0  0  0  0  0  0
   -5.2777   -1.3876   -0.0000 C   0  0  0  0  0  0  0  0  0  0  0  0
  -13.0461    0.1186   -0.0000 C   0  0  0  0  0  0  0  0  0  0  0  0
  -14.3507    0.8776   -0.0000 C   0  0  0  0  0  0  0  0  0  0  0  0
  -15.6671    0.1423   -0.0000 C   0  0  0  0  0  0  0  0  0  0  0  0
  -14.3625    2.3957   -0.0000 C   0  0  0  0  0  0  0  0  0  0  0  0
  -16.9718    0.9014   -0.0000 C   0  0  0  0  0  0  0  0  0  0  0  0
  -15.6671    3.1548   -0.0000 C   0  0  0  0  0  0  0  0  0  0  0  0
  -16.9836    2.4195   -0.0000 C   0  0  0  0  0  0  0  0  0  0  0  0
  1  2  1  0  0  0  0
  2  3  1  0  0  0  0
  3  4  2  0  0  0  0
  3  5  1  0  0  0  0
  5  6  1  0  0  0  0
  5  7  1  0  0  0  0
  6  8  1  0  0  0  0
  7  9  1  0  0  0  0
  8 10  2  0  0  0  0
  8 11  1  0  0  0  0
  9 12  1  0  0  0  0
 11 13  1  6  0  0  0
 11 14  1  0  0  0  0
 12 15  2  0  0  0  0
 12 16  1  0  0  0  0
 13 17  1  0  0  0  0
 14 18  1  0  0  0  0
 16 19  1  0  0  0  0
 16 20  1  0  0  0  0
 17 21  2  0  0  0  0
 17 22  1  0  0  0  0
 18 23  1  0  0  0  0
 18 24  1  0  0  0  0
 22 25  1  0  0  0  0
 25 26  1  0  0  0  0
 26 27  2  0  0  0  0
 26 28  1  0  0  0  0
 27 29  1  0  0  0  0
 28 30  2  0  0  0  0
 29 31  2  0  0  0  0
 30 31  1  0  0  0  0
M  END
>  <MolRegNo>
338209

>  <m>
=

>  <Value>
2400

>  <Unit>
nM

>  <Type>
EC50

>  <Ligand Efficiency>


>  <Binding Efficiency>


>  <Surface Efficiency>


>  <Assay Index>
256676

>  <Assay Category>


>  <Assay Organism>
SARS coronavirus

>  <Target ID>
100499

>  <Target Name>
SARS coronavirus

>  <Target Organism>
SARS coronavirus

>  <Target Description>
Target is a complete organism

>  <Sequence Accession>


>  <Reference>
J. Med. Chem. 49 (3), 1198-1201 (2006)

>  <Pubmed ID>
16451084

>  <DOI>
10.1021/jm0507678

>  <InChI-Key>
UBPKJZUVHMCXAZ-ZVAWYAOSSA-N

>  <Molecular Formula>
C22H32N3O5F

>  <Monoisotopic Mass>
437.232600

>  <Druglikeness>
-11.947

$$$$
Compound 530
Actelion Java MolfileCreator 1.0

 23 24  0  0  0  0  0  0  0  0999 V2000
    0.0000   -0.0000   -0.0000 Cl  0  0  0  0  0  0  0  0  0  0  0  0
   -0.0119   -1.4968   -0.0000 C   0  0  0  0  0  0  0  0  0  0  0  0
   -1.3304   -2.2333   -0.0000 C   0  0  0  0  0  0  0  0  0  0  0  0
    1.2829   -2.2333   -0.0000 C   0  0  0  0  0  0  0  0  0  0  0  0
   -1.3423   -3.7300   -0.0000 C   0  0  0  0  0  0  0  0  0  0  0  0
    1.2711   -3.7300   -0.0000 C   0  0  0  0  0  0  0  0  0  0  0  0
   -0.0475   -4.4784   -0.0000 C   0  0  0  0  0  0  0  0  0  0  0  0
   -0.0594   -5.9751   -0.0000 C   0  0  0  0  0  0  0  0  0  0  0  0
    1.2354   -6.7116   -0.0000 O   0  0  0  0  0  0  0  0  0  0  0  0
    1.2235   -8.2084   -0.0000 C   0  0  0  0  0  0  0  0  0  0  0  0
   -0.0950   -8.9449   -0.0000 C   0  0  0  0  0  0  0  0  0  0  0  0
    2.5183   -8.9449   -0.0000 C   0  0  0  0  0  0  0  0  0  0  0  0
   -0.1069  -10.4416   -0.0000 C   0  0  0  0  0  0  0  0  0  0  0  0
    2.5065  -10.4416   -0.0000 C   0  0  0  0  0  0  0  0  0  0  0  0
    1.1879  -11.1781   -0.0000 C   0  0  0  0  0  0  0  0  0  0  0  0
    1.1760  -12.6749   -0.0000 C   0  0  0  0  0  0  0  0  0  0  0  0
   -0.1425  -13.4233   -0.0000 O   0  0  0  0  0  0  0  0  0  0  0  0
    2.4708  -13.4233   -0.0000 C   0  0  0  0  0  0  0  0  0  0  0  0
    2.4590  -14.9200   -0.0000 C   0  0  0  0  0  0  0  0  0  0  0  0
    1.1404  -15.6684   -0.0000 O   0  0  0  0  0  0  0  0  0  0  0  0
    3.7538  -15.6684   -0.0000 C   0  0  0  0  0  0  0  0  0  0  0  0
    3.7419  -17.1652   -0.0000 O   0  0  0  0  0  0  0  0  0  0  0  0
    5.0486  -14.8963   -0.0000 O   0  0  0  0  0  0  0  0  0  0  0  0
  1  2  1  0  0  0  0
  2  3  2  0  0  0  0
  2  4  1  0  0  0  0
  3  5  1  0  0  0  0
  4  6  2  0  0  0  0
  5  7  2  0  0  0  0
  7  8  1  0  0  0  0
  8  9  1  0  0  0  0
  9 10  1  0  0  0  0
 10 11  2  0  0  0  0
 10 12  1  0  0  0  0
 11 13  1  0  0  0  0
 12 14  2  0  0  0  0
 13 15  2  0  0  0  0
 15 16  1  0  0  0  0
 16 17  2  0  0  0  0
 16 18  1  0  0  0  0
 18 19  2  0  0  0  0
 19 20  1  0  0  0  0
 19 21  1  0  0  0  0
 21 22  2  0  0  0  0
 21 23  1  0  0  0  0
  6  7  1  0  0  0  0
 14 15  1  0  0  0  0
M  END
>  <MolRegNo>
478457

>  <m>
>

>  <Value>
50000

>  <Unit>
nM

>  <Type>
IC50

>  <Ligand Efficiency>


>  <Binding Efficiency>


>  <Surface Efficiency>


>  <Assay Index>
414789

>  <Assay Category>


>  <Assay Organism>
SARS coronavirus

>  <Target ID>
101075

>  <Target Name>
Replicase polyprotein 1ab

>  <Target Organism>
SARS coronavirus

>  <Target Description>
Target is a single protein chain

>  <Sequence Accession>
P0C6X7

>  <Reference>
Bioorg. Med. Chem. Lett. 19 (6), 1636-1638 (2009)

>  <Pubmed ID>
19233643

>  <DOI>
10.1016/j.bmcl.2009.02.010

>  <InChI-Key>
UCHDSAXDODCWNW-UHFFFAOYSA-N

>  <Molecular Formula>
C17H13O5Cl

>  <Monoisotopic Mass>
332.045152

>  <Druglikeness>
1.01

$$$$
Compound 531
Actelion Java MolfileCreator 1.0

 23 24  0  0  0  0  0  0  0  0999 V2000
    0.0000   -0.0000   -0.0000 Cl  0  0  0  0  0  0  0  0  0  0  0  0
   -0.0119   -1.4968   -0.0000 C   0  0  0  0  0  0  0  0  0  0  0  0
   -1.3304   -2.2333   -0.0000 C   0  0  0  0  0  0  0  0  0  0  0  0
    1.2829   -2.2333   -0.0000 C   0  0  0  0  0  0  0  0  0  0  0  0
   -1.3423   -3.7300   -0.0000 C   0  0  0  0  0  0  0  0  0  0  0  0
    1.2711   -3.7300   -0.0000 C   0  0  0  0  0  0  0  0  0  0  0  0
   -0.0475   -4.4784   -0.0000 C   0  0  0  0  0  0  0  0  0  0  0  0
   -0.0594   -5.9751   -0.0000 C   0  0  0  0  0  0  0  0  0  0  0  0
    1.2354   -6.7116   -0.0000 O   0  0  0  0  0  0  0  0  0  0  0  0
    1.2235   -8.2084   -0.0000 C   0  0  0  0  0  0  0  0  0  0  0  0
   -0.0950   -8.9449   -0.0000 C   0  0  0  0  0  0  0  0  0  0  0  0
    2.5183   -8.9449   -0.0000 C   0  0  0  0  0  0  0  0  0  0  0  0
   -0.1069  -10.4416   -0.0000 C   0  0  0  0  0  0  0  0  0  0  0  0
    2.5065  -10.4416   -0.0000 C   0  0  0  0  0  0  0  0  0  0  0  0
    1.1879  -11.1781   -0.0000 C   0  0  0  0  0  0  0  0  0  0  0  0
    1.1760  -12.6749   -0.0000 C   0  0  0  0  0  0  0  0  0  0  0  0
   -0.1425  -13.4233   -0.0000 O   0  0  0  0  0  0  0  0  0  0  0  0
    2.4708  -13.4233   -0.0000 C   0  0  0  0  0  0  0  0  0  0  0  0
    2.4590  -14.9200   -0.0000 C   0  0  0  0  0  0  0  0  0  0  0  0
    1.1404  -15.6684   -0.0000 O   0  0  0  0  0  0  0  0  0  0  0  0
    3.7538  -15.6684   -0.0000 C   0  0  0  0  0  0  0  0  0  0  0  0
    3.7419  -17.1652   -0.0000 O   0  0  0  0  0  0  0  0  0  0  0  0
    5.0486  -14.8963   -0.0000 O   0  0  0  0  0  0  0  0  0  0  0  0
  1  2  1  0  0  0  0
  2  3  2  0  0  0  0
  2  4  1  0  0  0  0
  3  5  1  0  0  0  0
  4  6  2  0  0  0  0
  5  7  2  0  0  0  0
  7  8  1  0  0  0  0
  8  9  1  0  0  0  0
  9 10  1  0  0  0  0
 10 11  2  0  0  0  0
 10 12  1  0  0  0  0
 11 13  1  0  0  0  0
 12 14  2  0  0  0  0
 13 15  2  0  0  0  0
 15 16  1  0  0  0  0
 16 17  2  0  0  0  0
 16 18  1  0  0  0  0
 18 19  2  0  0  0  0
 19 20  1  0  0  0  0
 19 21  1  0  0  0  0
 21 22  2  0  0  0  0
 21 23  1  0  0  0  0
  6  7  1  0  0  0  0
 14 15  1  0  0  0  0
M  END
>  <MolRegNo>
478457

>  <m>
>

>  <Value>
50000

>  <Unit>
nM

>  <Type>
IC50

>  <Ligand Efficiency>


>  <Binding Efficiency>


>  <Surface Efficiency>


>  <Assay Index>
414790

>  <Assay Category>


>  <Assay Organism>
SARS coronavirus

>  <Target ID>
101075

>  <Target Name>
Replicase polyprotein 1ab

>  <Target Organism>
SARS coronavirus

>  <Target Description>
Target is a single protein chain

>  <Sequence Accession>
P0C6X7

>  <Reference>
Bioorg. Med. Chem. Lett. 19 (6), 1636-1638 (2009)

>  <Pubmed ID>
19233643

>  <DOI>
10.1016/j.bmcl.2009.02.010

>  <InChI-Key>
UCHDSAXDODCWNW-UHFFFAOYSA-N

>  <Molecular Formula>
C17H13O5Cl

>  <Monoisotopic Mass>
332.045152

>  <Druglikeness>
1.01

$$$$
Compound 532
Actelion Java MolfileCreator 1.0

 21 24  0  0  0  0  0  0  0  0999 V2000
    0.0000   -0.0000   -0.0000 O   0  0  0  0  0  0  0  0  0  0  0  0
   -0.8961    1.2262   -0.0000 C   0  0  0  0  0  0  0  0  0  0  0  0
   -0.4480    2.6646   -0.0000 C   0  0  0  0  0  0  0  0  0  0  0  0
   -2.4053    1.2380   -0.0000 C   0  0  0  0  0  0  0  0  0  0  0  0
    0.9668    3.1363   -0.0000 N   0  0  0  0  0  0  0  0  0  0  0  0
   -1.6625    3.5489   -0.0000 C   0  0  0  0  0  0  0  0  0  0  0  0
   -3.2895    0.0354   -0.0000 O   0  0  0  0  0  0  0  0  0  0  0  0
   -2.8769    2.6764   -0.0000 C   0  0  0  0  0  0  0  0  0  0  0  0
    1.4266    4.5747   -0.0000 C   0  0  0  0  0  0  0  0  0  0  0  0
    2.1694    2.2756   -0.0000 C   0  0  0  0  0  0  0  0  0  0  0  0
   -2.4170    4.8577   -0.0000 C   0  0  0  0  0  0  0  0  0  0  0  0
   -0.9197    4.8577   -0.0000 C   0  0  0  0  0  0  0  0  0  0  0  0
   -4.3153    3.1481   -0.0000 C   0  0  0  0  0  0  0  0  0  0  0  0
    0.6721    5.8834   -0.0000 N   0  0  0  0  0  0  0  0  0  0  0  0
    2.9005    4.5865   -0.0000 C   0  0  0  0  0  0  0  0  0  0  0  0
    3.3721    3.1716   -0.0000 N   0  0  0  0  0  0  0  0  0  0  0  0
   -5.3882    2.1105   -0.0000 O   0  0  0  0  0  0  0  0  0  0  0  0
    1.4031    7.1922   -0.0000 C   0  0  0  0  0  0  0  0  0  0  0  0
    3.6433    5.8952   -0.0000 C   0  0  0  0  0  0  0  0  0  0  0  0
    2.8887    7.2040   -0.0000 N   0  0  0  0  0  0  0  0  0  0  0  0
    5.1289    5.9070   -0.0000 N   0  0  0  0  0  0  0  0  0  0  0  0
  2  1  1  6  0  0  0
  2  3  1  0  0  0  0
  2  4  1  0  0  0  0
  3  5  1  1  0  0  0
  3  6  1  0  0  0  0
  4  7  1  6  0  0  0
  4  8  1  0  0  0  0
  5  9  1  0  0  0  0
  5 10  1  0  0  0  0
  6 11  1  0  0  0  0
  6 12  1  0  0  0  0
  8 13  1  1  0  0  0
  9 14  2  0  0  0  0
  9 15  1  0  0  0  0
 10 16  2  0  0  0  0
 13 17  1  0  0  0  0
 14 18  1  0  0  0  0
 15 19  2  0  0  0  0
 18 20  2  0  0  0  0
 19 21  1  0  0  0  0
  6  8  1  0  0  0  0
 11 12  1  0  0  0  0
 15 16  1  0  0  0  0
 19 20  1  0  0  0  0
M  END
>  <MolRegNo>
1158944

>  <m>


>  <Value>
0

>  <Unit>


>  <Type>
Activity

>  <Ligand Efficiency>


>  <Binding Efficiency>


>  <Surface Efficiency>


>  <Assay Index>
595935

>  <Assay Category>


>  <Assay Organism>
SARS coronavirus

>  <Target ID>
100499

>  <Target Name>
SARS coronavirus

>  <Target Organism>
SARS coronavirus

>  <Target Description>
Target is a complete organism

>  <Sequence Accession>


>  <Reference>
Bioorg. Med. Chem. Lett. 21 (13), 3982-3985 (2011)

>  <Pubmed ID>
21621997

>  <DOI>
10.1016/j.bmcl.2011.05.012

>  <InChI-Key>
UELYUPRWHFFBTC-ZQNVIIHSSA-N

>  <Molecular Formula>
C13H17N5O3

>  <Monoisotopic Mass>
291.133140

>  <Druglikeness>
1.7162

$$$$
Compound 533
Actelion Java MolfileCreator 1.0

 22 25  0  0  0  0  0  0  0  0999 V2000
    0.0000   -0.0000   -0.0000 Br  0  0  0  0  0  0  0  0  0  0  0  0
   -0.0119    1.5115   -0.0000 C   0  0  0  0  0  0  0  0  0  0  0  0
    1.2735    2.2851   -0.0000 C   0  0  0  0  0  0  0  0  0  0  0  0
   -1.3211    2.2732   -0.0000 C   0  0  0  0  0  0  0  0  0  0  0  0
    2.7017    1.8329   -0.0000 N   0  0  0  0  0  0  0  0  0  0  0  0
    1.2616    3.7966   -0.0000 C   0  0  0  0  0  0  0  0  0  0  0  0
   -1.3330    3.7966   -0.0000 C   0  0  0  0  0  0  0  0  0  0  0  0
    3.5824    3.0587   -0.0000 C   0  0  0  0  0  0  0  0  0  0  0  0
    3.1658    0.4047   -0.0000 C   0  0  0  0  0  0  0  0  0  0  0  0
    2.6898    4.2846   -0.0000 C   0  0  0  0  0  0  0  0  0  0  0  0
   -0.0476    4.5583   -0.0000 C   0  0  0  0  0  0  0  0  0  0  0  0
    5.0701    3.0706   -0.0000 O   0  0  0  0  0  0  0  0  0  0  0  0
    4.6179    0.1071   -0.0000 C   0  0  0  0  0  0  0  0  0  0  0  0
    3.1301    5.7366   -0.0000 O   0  0  0  0  0  0  0  0  0  0  0  0
    5.7247    1.1426   -0.0000 S   0  0  0  0  0  0  0  0  0  0  0  0
    5.2248   -1.2497   -0.0000 C   0  0  0  0  0  0  0  0  0  0  0  0
    7.0101    0.4047   -0.0000 C   0  0  0  0  0  0  0  0  0  0  0  0
    6.6887   -1.0593   -0.0000 C   0  0  0  0  0  0  0  0  0  0  0  0
    8.4145    0.8807   -0.0000 C   0  0  0  0  0  0  0  0  0  0  0  0
    7.7956   -2.0471   -0.0000 C   0  0  0  0  0  0  0  0  0  0  0  0
    9.5213   -0.1071   -0.0000 C   0  0  0  0  0  0  0  0  0  0  0  0
    9.2119   -1.5829   -0.0000 C   0  0  0  0  0  0  0  0  0  0  0  0
  1  2  1  0  0  0  0
  2  3  2  0  0  0  0
  2  4  1  0  0  0  0
  3  5  1  0  0  0  0
  3  6  1  0  0  0  0
  4  7  2  0  0  0  0
  5  8  1  0  0  0  0
  5  9  1  0  0  0  0
  6 10  1  0  0  0  0
  6 11  2  0  0  0  0
  8 12  2  0  0  0  0
  9 13  1  0  0  0  0
 10 14  2  0  0  0  0
 13 15  1  0  0  0  0
 13 16  2  0  0  0  0
 15 17  1  0  0  0  0
 16 18  1  0  0  0  0
 17 19  1  0  0  0  0
 18 20  1  0  0  0  0
 19 21  2  0  0  0  0
 20 22  2  0  0  0  0
  7 11  1  0  0  0  0
  8 10  1  0  0  0  0
 17 18  2  0  0  0  0
 21 22  1  0  0  0  0
M  END
>  <MolRegNo>
316358

>  <m>
=

>  <Value>
980

>  <Unit>
nM

>  <Type>
IC50

>  <Ligand Efficiency>
0.37

>  <Binding Efficiency>
16.14

>  <Surface Efficiency>
16.07

>  <Assay Index>
238433

>  <Assay Category>


>  <Assay Organism>
SARS coronavirus

>  <Target ID>
20012

>  <Target Name>
SARS coronavirus 3C-like proteinase

>  <Target Organism>
SARS coronavirus

>  <Target Description>
Target is a single protein chain

>  <Sequence Accession>
P0C6U8

>  <Reference>
Bioorg. Med. Chem. Lett. 15 (12), 3058-3062 (2005)

>  <Pubmed ID>
15896959

>  <DOI>
10.1016/j.bmcl.2005.04.027

>  <InChI-Key>
UFOWXDUBQLPEOX-UHFFFAOYSA-N

>  <Molecular Formula>
C17H10NO2BrS

>  <Monoisotopic Mass>
370.961560

>  <Druglikeness>
-0.52857

$$$$
Compound 534
Actelion Java MolfileCreator 1.0

 22 24  0  0  0  0  0  0  0  0999 V2000
    0.0000   -0.0000   -0.0000 Cl  0  0  0  0  0  0  0  0  0  0  0  0
   -1.3029   -0.7462   -0.0000 C   0  0  0  0  0  0  0  0  0  0  0  0
   -1.3147   -2.2385   -0.0000 C   0  0  0  0  0  0  0  0  0  0  0  0
   -2.6175   -0.0000   -0.0000 C   0  0  0  0  0  0  0  0  0  0  0  0
   -2.6294   -2.9729   -0.0000 N   0  0  0  0  0  0  0  0  0  0  0  0
   -3.9086   -0.7343   -0.0000 C   0  0  0  0  0  0  0  0  0  0  0  0
   -3.9322   -2.2148   -0.0000 C   0  0  0  0  0  0  0  0  0  0  0  0
   -5.2114    0.0237   -0.0000 O   0  0  0  0  0  0  0  0  0  0  0  0
   -6.5143   -0.7106   -0.0000 C   0  0  0  0  0  0  0  0  0  0  0  0
   -6.5261   -2.1912   -0.0000 O   0  0  0  0  0  0  0  0  0  0  0  0
   -7.8171    0.0474   -0.0000 C   0  0  0  0  0  0  0  0  0  0  0  0
   -7.9948    1.5397   -0.0000 O   0  0  0  0  0  0  0  0  0  0  0  0
   -9.1910   -0.5448   -0.0000 C   0  0  0  0  0  0  0  0  0  0  0  0
   -9.4634    1.8595   -0.0000 C   0  0  0  0  0  0  0  0  0  0  0  0
  -10.1978    0.5804   -0.0000 C   0  0  0  0  0  0  0  0  0  0  0  0
  -10.0793    3.2334   -0.0000 C   0  0  0  0  0  0  0  0  0  0  0  0
   -9.2147    4.4534   -0.0000 C   0  0  0  0  0  0  0  0  0  0  0  0
  -11.5717    3.3993   -0.0000 C   0  0  0  0  0  0  0  0  0  0  0  0
   -9.8306    5.8273   -0.0000 C   0  0  0  0  0  0  0  0  0  0  0  0
  -12.1994    4.7732   -0.0000 C   0  0  0  0  0  0  0  0  0  0  0  0
  -11.3348    5.9931   -0.0000 C   0  0  0  0  0  0  0  0  0  0  0  0
  -11.9625    7.3670   -0.0000 Cl  0  0  0  0  0  0  0  0  0  0  0  0
  1  2  1  0  0  0  0
  2  3  2  0  0  0  0
  2  4  1  0  0  0  0
  3  5  1  0  0  0  0
  4  6  2  0  0  0  0
  5  7  2  0  0  0  0
  6  8  1  0  0  0  0
  8  9  1  0  0  0  0
  9 10  2  0  0  0  0
  9 11  1  0  0  0  0
 11 12  1  0  0  0  0
 11 13  2  0  0  0  0
 12 14  1  0  0  0  0
 13 15  1  0  0  0  0
 14 16  1  0  0  0  0
 16 17  2  0  0  0  0
 16 18  1  0  0  0  0
 17 19  1  0  0  0  0
 18 20  2  0  0  0  0
 19 21  2  0  0  0  0
 21 22  1  0  0  0  0
  6  7  1  0  0  0  0
 14 15  2  0  0  0  0
 20 21  1  0  0  0  0
M  END
>  <MolRegNo>
371749

>  <m>
=

>  <Value>
63

>  <Unit>
nM

>  <Type>
IC50

>  <Ligand Efficiency>
0.45

>  <Binding Efficiency>
21.55

>  <Surface Efficiency>
13.76

>  <Assay Index>
278391

>  <Assay Category>


>  <Assay Organism>
SARS coronavirus

>  <Target ID>
20012

>  <Target Name>
SARS coronavirus 3C-like proteinase

>  <Target Organism>
SARS coronavirus

>  <Target Description>
Target is a single protein chain

>  <Sequence Accession>
P0C6U8

>  <Reference>
J. Med. Chem. 50 (8), 1850-1864 (2007)

>  <Pubmed ID>
17381079

>  <DOI>
10.1021/jm061425k

>  <InChI-Key>
UICFGOSRHHZBHZ-UHFFFAOYSA-N

>  <Molecular Formula>
C16H9NO3Cl2

>  <Monoisotopic Mass>
332.995948

>  <Druglikeness>
0.9785

$$$$
Compound 535
Actelion Java MolfileCreator 1.0

 22 24  0  0  0  0  0  0  0  0999 V2000
    0.0000   -0.0000   -0.0000 Cl  0  0  0  0  0  0  0  0  0  0  0  0
   -1.3029   -0.7462   -0.0000 C   0  0  0  0  0  0  0  0  0  0  0  0
   -1.3147   -2.2385   -0.0000 C   0  0  0  0  0  0  0  0  0  0  0  0
   -2.6175   -0.0000   -0.0000 C   0  0  0  0  0  0  0  0  0  0  0  0
   -2.6294   -2.9729   -0.0000 N   0  0  0  0  0  0  0  0  0  0  0  0
   -3.9086   -0.7343   -0.0000 C   0  0  0  0  0  0  0  0  0  0  0  0
   -3.9322   -2.2148   -0.0000 C   0  0  0  0  0  0  0  0  0  0  0  0
   -5.2114    0.0237   -0.0000 O   0  0  0  0  0  0  0  0  0  0  0  0
   -6.5143   -0.7106   -0.0000 C   0  0  0  0  0  0  0  0  0  0  0  0
   -6.5261   -2.1912   -0.0000 O   0  0  0  0  0  0  0  0  0  0  0  0
   -7.8171    0.0474   -0.0000 C   0  0  0  0  0  0  0  0  0  0  0  0
   -7.9948    1.5397   -0.0000 O   0  0  0  0  0  0  0  0  0  0  0  0
   -9.1910   -0.5448   -0.0000 C   0  0  0  0  0  0  0  0  0  0  0  0
   -9.4634    1.8595   -0.0000 C   0  0  0  0  0  0  0  0  0  0  0  0
  -10.1978    0.5804   -0.0000 C   0  0  0  0  0  0  0  0  0  0  0  0
  -10.0793    3.2334   -0.0000 C   0  0  0  0  0  0  0  0  0  0  0  0
   -9.2147    4.4534   -0.0000 C   0  0  0  0  0  0  0  0  0  0  0  0
  -11.5717    3.3993   -0.0000 C   0  0  0  0  0  0  0  0  0  0  0  0
   -9.8306    5.8273   -0.0000 C   0  0  0  0  0  0  0  0  0  0  0  0
  -12.1994    4.7732   -0.0000 C   0  0  0  0  0  0  0  0  0  0  0  0
  -11.3348    5.9931   -0.0000 C   0  0  0  0  0  0  0  0  0  0  0  0
  -11.9625    7.3670   -0.0000 Cl  0  0  0  0  0  0  0  0  0  0  0  0
  1  2  1  0  0  0  0
  2  3  2  0  0  0  0
  2  4  1  0  0  0  0
  3  5  1  0  0  0  0
  4  6  2  0  0  0  0
  5  7  2  0  0  0  0
  6  8  1  0  0  0  0
  8  9  1  0  0  0  0
  9 10  2  0  0  0  0
  9 11  1  0  0  0  0
 11 12  1  0  0  0  0
 11 13  2  0  0  0  0
 12 14  1  0  0  0  0
 13 15  1  0  0  0  0
 14 16  1  0  0  0  0
 16 17  2  0  0  0  0
 16 18  1  0  0  0  0
 17 19  1  0  0  0  0
 18 20  2  0  0  0  0
 19 21  2  0  0  0  0
 21 22  1  0  0  0  0
  6  7  1  0  0  0  0
 14 15  2  0  0  0  0
 20 21  1  0  0  0  0
M  END
>  <MolRegNo>
371749

>  <m>
=

>  <Value>
98

>  <Unit>
%

>  <Type>
Inhibition

>  <Ligand Efficiency>


>  <Binding Efficiency>


>  <Surface Efficiency>


>  <Assay Index>
278392

>  <Assay Category>


>  <Assay Organism>
SARS coronavirus

>  <Target ID>
20012

>  <Target Name>
SARS coronavirus 3C-like proteinase

>  <Target Organism>
SARS coronavirus

>  <Target Description>
Target is a single protein chain

>  <Sequence Accession>
P0C6U8

>  <Reference>
J. Med. Chem. 50 (8), 1850-1864 (2007)

>  <Pubmed ID>
17381079

>  <DOI>
10.1021/jm061425k

>  <InChI-Key>
UICFGOSRHHZBHZ-UHFFFAOYSA-N

>  <Molecular Formula>
C16H9NO3Cl2

>  <Monoisotopic Mass>
332.995948

>  <Druglikeness>
0.9785

$$$$
Compound 536
Actelion Java MolfileCreator 1.0

 18 19  0  0  0  0  0  0  0  0999 V2000
    0.0000   -0.0000   -0.0000 Cl  0  0  0  0  0  0  0  0  0  0  0  0
   -1.3029   -0.7343   -0.0000 C   0  0  0  0  0  0  0  0  0  0  0  0
   -1.3147   -2.2267   -0.0000 C   0  0  0  0  0  0  0  0  0  0  0  0
   -2.6057    0.0237   -0.0000 C   0  0  0  0  0  0  0  0  0  0  0  0
   -2.6294   -2.9610   -0.0000 N   0  0  0  0  0  0  0  0  0  0  0  0
   -3.9086   -0.7106   -0.0000 C   0  0  0  0  0  0  0  0  0  0  0  0
   -3.9322   -2.2030   -0.0000 C   0  0  0  0  0  0  0  0  0  0  0  0
   -5.2114    0.0474   -0.0000 O   0  0  0  0  0  0  0  0  0  0  0  0
   -6.5143   -0.6870   -0.0000 C   0  0  0  0  0  0  0  0  0  0  0  0
   -6.5261   -2.1675   -0.0000 O   0  0  0  0  0  0  0  0  0  0  0  0
   -7.8171    0.0711   -0.0000 C   0  0  0  0  0  0  0  0  0  0  0  0
   -9.1081   -0.6633   -0.0000 C   0  0  0  0  0  0  0  0  0  0  0  0
   -7.8171    1.5753   -0.0000 C   0  0  0  0  0  0  0  0  0  0  0  0
  -10.4110    0.0829   -0.0000 C   0  0  0  0  0  0  0  0  0  0  0  0
   -9.1200    2.3333   -0.0000 C   0  0  0  0  0  0  0  0  0  0  0  0
  -11.7138   -0.6514   -0.0000 O   0  0  0  0  0  0  0  0  0  0  0  0
  -10.4228    1.5990   -0.0000 C   0  0  0  0  0  0  0  0  0  0  0  0
  -13.0167    0.1066   -0.0000 C   0  0  0  0  0  0  0  0  0  0  0  0
  1  2  1  0  0  0  0
  2  3  2  0  0  0  0
  2  4  1  0  0  0  0
  3  5  1  0  0  0  0
  4  6  2  0  0  0  0
  5  7  2  0  0  0  0
  6  8  1  0  0  0  0
  8  9  1  0  0  0  0
  9 10  2  0  0  0  0
  9 11  1  0  0  0  0
 11 12  2  0  0  0  0
 11 13  1  0  0  0  0
 12 14  1  0  0  0  0
 13 15  2  0  0  0  0
 14 16  1  0  0  0  0
 14 17  2  0  0  0  0
 16 18  1  0  0  0  0
  6  7  1  0  0  0  0
 15 17  1  0  0  0  0
M  END
>  <MolRegNo>
371905

>  <m>
=

>  <Value>
340

>  <Unit>
nM

>  <Type>
IC50

>  <Ligand Efficiency>
0.49

>  <Binding Efficiency>
24.53

>  <Surface Efficiency>
13.36

>  <Assay Index>
278391

>  <Assay Category>


>  <Assay Organism>
SARS coronavirus

>  <Target ID>
20012

>  <Target Name>
SARS coronavirus 3C-like proteinase

>  <Target Organism>
SARS coronavirus

>  <Target Description>
Target is a single protein chain

>  <Sequence Accession>
P0C6U8

>  <Reference>
J. Med. Chem. 50 (8), 1850-1864 (2007)

>  <Pubmed ID>
17381079

>  <DOI>
10.1021/jm061425k

>  <InChI-Key>
UIXQHURPUVBNCZ-UHFFFAOYSA-N

>  <Molecular Formula>
C13H10NO3Cl

>  <Monoisotopic Mass>
263.034921

>  <Druglikeness>
-1.1101

$$$$
Compound 537
Actelion Java MolfileCreator 1.0

 18 19  0  0  0  0  0  0  0  0999 V2000
    0.0000   -0.0000   -0.0000 Cl  0  0  0  0  0  0  0  0  0  0  0  0
   -1.3029   -0.7343   -0.0000 C   0  0  0  0  0  0  0  0  0  0  0  0
   -1.3147   -2.2267   -0.0000 C   0  0  0  0  0  0  0  0  0  0  0  0
   -2.6057    0.0237   -0.0000 C   0  0  0  0  0  0  0  0  0  0  0  0
   -2.6294   -2.9610   -0.0000 N   0  0  0  0  0  0  0  0  0  0  0  0
   -3.9086   -0.7106   -0.0000 C   0  0  0  0  0  0  0  0  0  0  0  0
   -3.9322   -2.2030   -0.0000 C   0  0  0  0  0  0  0  0  0  0  0  0
   -5.2114    0.0474   -0.0000 O   0  0  0  0  0  0  0  0  0  0  0  0
   -6.5143   -0.6870   -0.0000 C   0  0  0  0  0  0  0  0  0  0  0  0
   -6.5261   -2.1675   -0.0000 O   0  0  0  0  0  0  0  0  0  0  0  0
   -7.8171    0.0711   -0.0000 C   0  0  0  0  0  0  0  0  0  0  0  0
   -9.1081   -0.6633   -0.0000 C   0  0  0  0  0  0  0  0  0  0  0  0
   -7.8171    1.5753   -0.0000 C   0  0  0  0  0  0  0  0  0  0  0  0
  -10.4110    0.0829   -0.0000 C   0  0  0  0  0  0  0  0  0  0  0  0
   -9.1200    2.3333   -0.0000 C   0  0  0  0  0  0  0  0  0  0  0  0
  -11.7138   -0.6514   -0.0000 O   0  0  0  0  0  0  0  0  0  0  0  0
  -10.4228    1.5990   -0.0000 C   0  0  0  0  0  0  0  0  0  0  0  0
  -13.0167    0.1066   -0.0000 C   0  0  0  0  0  0  0  0  0  0  0  0
  1  2  1  0  0  0  0
  2  3  2  0  0  0  0
  2  4  1  0  0  0  0
  3  5  1  0  0  0  0
  4  6  2  0  0  0  0
  5  7  2  0  0  0  0
  6  8  1  0  0  0  0
  8  9  1  0  0  0  0
  9 10  2  0  0  0  0
  9 11  1  0  0  0  0
 11 12  2  0  0  0  0
 11 13  1  0  0  0  0
 12 14  1  0  0  0  0
 13 15  2  0  0  0  0
 14 16  1  0  0  0  0
 14 17  2  0  0  0  0
 16 18  1  0  0  0  0
  6  7  1  0  0  0  0
 15 17  1  0  0  0  0
M  END
>  <MolRegNo>
371905

>  <m>
=

>  <Value>
97

>  <Unit>
%

>  <Type>
Inhibition

>  <Ligand Efficiency>


>  <Binding Efficiency>


>  <Surface Efficiency>


>  <Assay Index>
278392

>  <Assay Category>


>  <Assay Organism>
SARS coronavirus

>  <Target ID>
20012

>  <Target Name>
SARS coronavirus 3C-like proteinase

>  <Target Organism>
SARS coronavirus

>  <Target Description>
Target is a single protein chain

>  <Sequence Accession>
P0C6U8

>  <Reference>
J. Med. Chem. 50 (8), 1850-1864 (2007)

>  <Pubmed ID>
17381079

>  <DOI>
10.1021/jm061425k

>  <InChI-Key>
UIXQHURPUVBNCZ-UHFFFAOYSA-N

>  <Molecular Formula>
C13H10NO3Cl

>  <Monoisotopic Mass>
263.034921

>  <Druglikeness>
-1.1101

$$$$
Compound 538
Actelion Java MolfileCreator 1.0

 17 18  0  0  0  0  0  0  0  0999 V2000
    0.0000   -0.0000   -0.0000 Cl  0  0  0  0  0  0  0  0  0  0  0  0
   -0.0355   -1.4899   -0.0000 C   0  0  0  0  0  0  0  0  0  0  0  0
    1.2416   -2.2585   -0.0000 N   0  0  0  0  0  0  0  0  0  0  0  0
   -1.3598   -2.2112   -0.0000 C   0  0  0  0  0  0  0  0  0  0  0  0
    1.1943   -3.7483   -0.0000 C   0  0  0  0  0  0  0  0  0  0  0  0
   -2.7906   -1.7027   -0.0000 N   0  0  0  0  0  0  0  0  0  0  0  0
   -1.4071   -3.7010   -0.0000 C   0  0  0  0  0  0  0  0  0  0  0  0
   -0.1301   -4.4578   -0.0000 N   0  0  0  0  0  0  0  0  0  0  0  0
   -3.7010   -2.8970   -0.0000 C   0  0  0  0  0  0  0  0  0  0  0  0
   -2.8615   -4.1267   -0.0000 N   0  0  0  0  0  0  0  0  0  0  0  0
   -3.3700   -5.5338   -0.0000 C   0  0  0  0  0  0  0  0  0  0  0  0
   -4.8598   -5.8058   -0.0000 C   0  0  0  0  0  0  0  0  0  0  0  0
   -5.3683   -7.2129   -0.0000 C   0  0  0  0  0  0  0  0  0  0  0  0
   -6.8581   -7.4848   -0.0000 C   0  0  0  0  0  0  0  0  0  0  0  0
   -4.3987   -8.3362   -0.0000 C   0  0  0  0  0  0  0  0  0  0  0  0
   -7.8514   -6.3379   -0.0000 O   0  0  0  0  0  0  0  0  0  0  0  0
   -4.9071   -9.7433   -0.0000 O   0  0  0  0  0  0  0  0  0  0  0  0
  1  2  1  0  0  0  0
  2  3  2  0  0  0  0
  2  4  1  0  0  0  0
  3  5  1  0  0  0  0
  4  6  1  0  0  0  0
  4  7  2  0  0  0  0
  5  8  2  0  0  0  0
  6  9  2  0  0  0  0
  7 10  1  0  0  0  0
 10 11  1  0  0  0  0
 11 12  1  0  0  0  0
 12 13  1  0  0  0  0
 13 14  1  0  0  0  0
 13 15  1  0  0  0  0
 14 16  1  0  0  0  0
 15 17  1  0  0  0  0
  7  8  1  0  0  0  0
  9 10  1  0  0  0  0
M  END
>  <MolRegNo>
386747

>  <m>
>

>  <Value>
3.0e5

>  <Unit>
nM

>  <Type>
IC50

>  <Ligand Efficiency>


>  <Binding Efficiency>


>  <Surface Efficiency>


>  <Assay Index>
287336

>  <Assay Category>


>  <Assay Organism>
SARS coronavirus

>  <Target ID>
100499

>  <Target Name>
SARS coronavirus

>  <Target Organism>
SARS coronavirus

>  <Target Description>
Target is a complete organism

>  <Sequence Accession>


>  <Reference>
Bioorg. Med. Chem. Lett. 17 (9), 2470-2473 (2007)

>  <Pubmed ID>
17336519

>  <DOI>
10.1016/j.bmcl.2007.02.026

>  <InChI-Key>
UIYLWBRLVFIUHW-UHFFFAOYSA-N

>  <Molecular Formula>
C10H13N4O2Cl

>  <Monoisotopic Mass>
256.072703

>  <Druglikeness>
-2.0272

$$$$
Compound 539
Actelion Java MolfileCreator 1.0

 24 27  0  0  0  0  0  0  0  0999 V2000
    0.0000   -0.0000   -0.0000 I   0  0  0  0  0  0  0  0  0  0  0  0
    1.2973   -0.7379   -0.0000 C   0  0  0  0  0  0  0  0  0  0  0  0
    2.5946    0.0476   -0.0000 C   0  0  0  0  0  0  0  0  0  0  0  0
    1.2854   -2.2376   -0.0000 C   0  0  0  0  0  0  0  0  0  0  0  0
    3.8919   -0.7022   -0.0000 C   0  0  0  0  0  0  0  0  0  0  0  0
    2.5827   -2.9755   -0.0000 C   0  0  0  0  0  0  0  0  0  0  0  0
    5.3202   -0.2261   -0.0000 C   0  0  0  0  0  0  0  0  0  0  0  0
    3.8800   -2.2019   -0.0000 C   0  0  0  0  0  0  0  0  0  0  0  0
    5.7725    1.2259   -0.0000 O   0  0  0  0  0  0  0  0  0  0  0  0
    6.2009   -1.4401   -0.0000 C   0  0  0  0  0  0  0  0  0  0  0  0
    5.3083   -2.6660   -0.0000 N   0  0  0  0  0  0  0  0  0  0  0  0
    7.7006   -1.4282   -0.0000 O   0  0  0  0  0  0  0  0  0  0  0  0
    5.7605   -4.0943   -0.0000 C   0  0  0  0  0  0  0  0  0  0  0  0
    7.2126   -4.3918   -0.0000 C   0  0  0  0  0  0  0  0  0  0  0  0
    7.6768   -5.8201   -0.0000 C   0  0  0  0  0  0  0  0  0  0  0  0
    9.1407   -6.1176   -0.0000 C   0  0  0  0  0  0  0  0  0  0  0  0
   10.2595   -5.0821   -0.0000 S   0  0  0  0  0  0  0  0  0  0  0  0
    9.7477   -7.4744   -0.0000 C   0  0  0  0  0  0  0  0  0  0  0  0
   11.5568   -5.8320   -0.0000 C   0  0  0  0  0  0  0  0  0  0  0  0
   11.2355   -7.3078   -0.0000 C   0  0  0  0  0  0  0  0  0  0  0  0
   12.9612   -5.3559   -0.0000 C   0  0  0  0  0  0  0  0  0  0  0  0
   12.3423   -8.2838   -0.0000 C   0  0  0  0  0  0  0  0  0  0  0  0
   14.0681   -6.3318   -0.0000 C   0  0  0  0  0  0  0  0  0  0  0  0
   13.7706   -7.8196   -0.0000 C   0  0  0  0  0  0  0  0  0  0  0  0
  1  2  1  0  0  0  0
  2  3  2  0  0  0  0
  2  4  1  0  0  0  0
  3  5  1  0  0  0  0
  4  6  2  0  0  0  0
  5  7  1  0  0  0  0
  5  8  2  0  0  0  0
  7  9  2  0  0  0  0
  7 10  1  0  0  0  0
  8 11  1  0  0  0  0
 10 12  2  0  0  0  0
 11 13  1  0  0  0  0
 13 14  1  0  0  0  0
 14 15  2  0  0  0  0
 15 16  1  0  0  0  0
 16 17  1  0  0  0  0
 16 18  2  0  0  0  0
 17 19  1  0  0  0  0
 18 20  1  0  0  0  0
 19 21  1  0  0  0  0
 20 22  1  0  0  0  0
 21 23  2  0  0  0  0
 22 24  2  0  0  0  0
  6  8  1  0  0  0  0
 10 11  1  0  0  0  0
 19 20  2  0  0  0  0
 23 24  1  0  0  0  0
M  END
>  <MolRegNo>
316735

>  <m>
=

>  <Value>
23500

>  <Unit>
nM

>  <Type>
IC50

>  <Ligand Efficiency>
0.26

>  <Binding Efficiency>
10.40

>  <Surface Efficiency>
12.38

>  <Assay Index>
238671

>  <Assay Category>


>  <Assay Organism>
SARS coronavirus

>  <Target ID>
20012

>  <Target Name>
SARS coronavirus 3C-like proteinase

>  <Target Organism>
SARS coronavirus

>  <Target Description>
Target is a single protein chain

>  <Sequence Accession>
P0C6U8

>  <Reference>
Bioorg. Med. Chem. Lett. 15 (12), 3058-3062 (2005)

>  <Pubmed ID>
15896959

>  <DOI>
10.1016/j.bmcl.2005.04.027

>  <InChI-Key>
ULTYNOLOPCCXGD-UHFFFAOYSA-N

>  <Molecular Formula>
C19H12NO2IS

>  <Monoisotopic Mass>
444.963347

>  <Druglikeness>
1.6817

$$$$
Compound 540
Actelion Java MolfileCreator 1.0

 26 27  0  0  0  0  0  0  0  0999 V2000
    0.0000   -0.0000   -0.0000 S   0  0  0  0  0  0  0  0  0  0  0  0
    1.2843   -0.7373   -0.0000 C   0  0  0  0  0  0  0  0  0  0  0  0
   -1.3081   -0.7373   -0.0000 C   0  0  0  0  0  0  0  0  0  0  0  0
    2.5568    0.0357   -0.0000 N   0  0  0  0  0  0  0  0  0  0  0  0
    1.2605   -2.2238   -0.0000 N   0  0  0  0  0  0  0  0  0  0  0  0
   -2.6162    0.0238   -0.0000 C   0  0  0  0  0  0  0  0  0  0  0  0
    3.8411   -0.6897   -0.0000 C   0  0  0  0  0  0  0  0  0  0  0  0
    2.5449   -2.9611   -0.0000 C   0  0  0  0  0  0  0  0  0  0  0  0
   -2.6281    1.5341   -0.0000 O   0  0  0  0  0  0  0  0  0  0  0  0
   -3.9243   -0.7135   -0.0000 N   0  0  0  0  0  0  0  0  0  0  0  0
    5.1254    0.0832   -0.0000 N   0  0  0  0  0  0  0  0  0  0  0  0
    3.8411   -2.1881   -0.0000 C   0  0  0  0  0  0  0  0  0  0  0  0
   -5.2325    0.0476   -0.0000 C   0  0  0  0  0  0  0  0  0  0  0  0
    5.1254   -2.9254   -0.0000 C   0  0  0  0  0  0  0  0  0  0  0  0
   -6.5525   -0.6897   -0.0000 C   0  0  0  0  0  0  0  0  0  0  0  0
   -5.2443    1.5697   -0.0000 C   0  0  0  0  0  0  0  0  0  0  0  0
    6.4098   -2.1643   -0.0000 O   0  0  0  0  0  0  0  0  0  0  0  0
    5.1135   -4.4119   -0.0000 O   0  0  0  0  0  0  0  0  0  0  0  0
   -7.8606    0.0714   -0.0000 C   0  0  0  0  0  0  0  0  0  0  0  0
   -6.5644    2.3189   -0.0000 C   0  0  0  0  0  0  0  0  0  0  0  0
    6.3979   -5.1492   -0.0000 C   0  0  0  0  0  0  0  0  0  0  0  0
   -7.8725    1.5816   -0.0000 C   0  0  0  0  0  0  0  0  0  0  0  0
    6.3860   -6.6357   -0.0000 C   0  0  0  0  0  0  0  0  0  0  0  0
   -9.1925    2.3427   -0.0000 N   0  0  0  0  0  0  0  0  0  0  0  0
  -10.5006    1.6054   -0.0000 O   0  0  0  0  0  0  0  0  0  0  0  0
   -9.2044    3.8530   -0.0000 O   0  0  0  0  0  0  0  0  0  0  0  0
  1  2  1  0  0  0  0
  1  3  1  0  0  0  0
  2  4  2  0  0  0  0
  2  5  1  0  0  0  0
  3  6  1  0  0  0  0
  4  7  1  0  0  0  0
  5  8  2  0  0  0  0
  6  9  2  0  0  0  0
  6 10  1  0  0  0  0
  7 11  1  0  0  0  0
  7 12  2  0  0  0  0
 10 13  1  0  0  0  0
 12 14  1  0  0  0  0
 13 15  2  0  0  0  0
 13 16  1  0  0  0  0
 14 17  2  0  0  0  0
 14 18  1  0  0  0  0
 15 19  1  0  0  0  0
 16 20  2  0  0  0  0
 18 21  1  0  0  0  0
 19 22  2  0  0  0  0
 21 23  1  0  0  0  0
 22 24  1  0  0  0  0
 24 25  2  0  0  0  0
 24 26  1  0  0  0  0
  8 12  1  0  0  0  0
 20 22  1  0  0  0  0
M  CHG  2  24   1  26  -1
M  END
>  <MolRegNo>
348976

>  <m>
=

>  <Value>
3.9811e12

>  <Unit>
nM

>  <Type>
IC50

>  <Ligand Efficiency>


>  <Binding Efficiency>


>  <Surface Efficiency>


>  <Assay Index>
262926

>  <Assay Category>


>  <Assay Organism>
SARS coronavirus

>  <Target ID>
20012

>  <Target Name>
SARS coronavirus 3C-like proteinase

>  <Target Organism>
SARS coronavirus

>  <Target Description>
Target is a single protein chain

>  <Sequence Accession>
P0C6U8

>  <Reference>
J. Med. Chem. 49 (12), 3485-3495 (2006)

>  <Pubmed ID>
16759091

>  <DOI>
10.1021/jm050852f

>  <InChI-Key>
UOLRFSMMZCPIDL-UHFFFAOYSA-N

>  <Molecular Formula>
C15H15N5O5S

>  <Monoisotopic Mass>
377.079390

>  <Druglikeness>
-7.4253

$$$$
Compound 541
Actelion Java MolfileCreator 1.0

 26 27  0  0  0  0  0  0  0  0999 V2000
    0.0000   -0.0000   -0.0000 S   0  0  0  0  0  0  0  0  0  0  0  0
    1.2843   -0.7373   -0.0000 C   0  0  0  0  0  0  0  0  0  0  0  0
   -1.3081   -0.7373   -0.0000 C   0  0  0  0  0  0  0  0  0  0  0  0
    2.5568    0.0357   -0.0000 N   0  0  0  0  0  0  0  0  0  0  0  0
    1.2605   -2.2238   -0.0000 N   0  0  0  0  0  0  0  0  0  0  0  0
   -2.6162    0.0238   -0.0000 C   0  0  0  0  0  0  0  0  0  0  0  0
    3.8411   -0.6897   -0.0000 C   0  0  0  0  0  0  0  0  0  0  0  0
    2.5449   -2.9611   -0.0000 C   0  0  0  0  0  0  0  0  0  0  0  0
   -2.6281    1.5341   -0.0000 O   0  0  0  0  0  0  0  0  0  0  0  0
   -3.9243   -0.7135   -0.0000 N   0  0  0  0  0  0  0  0  0  0  0  0
    5.1254    0.0832   -0.0000 N   0  0  0  0  0  0  0  0  0  0  0  0
    3.8411   -2.1881   -0.0000 C   0  0  0  0  0  0  0  0  0  0  0  0
   -5.2325    0.0476   -0.0000 C   0  0  0  0  0  0  0  0  0  0  0  0
    5.1254   -2.9254   -0.0000 C   0  0  0  0  0  0  0  0  0  0  0  0
   -6.5525   -0.6897   -0.0000 C   0  0  0  0  0  0  0  0  0  0  0  0
   -5.2443    1.5697   -0.0000 C   0  0  0  0  0  0  0  0  0  0  0  0
    6.4098   -2.1643   -0.0000 O   0  0  0  0  0  0  0  0  0  0  0  0
    5.1135   -4.4119   -0.0000 O   0  0  0  0  0  0  0  0  0  0  0  0
   -7.8606    0.0714   -0.0000 C   0  0  0  0  0  0  0  0  0  0  0  0
   -6.5644    2.3189   -0.0000 C   0  0  0  0  0  0  0  0  0  0  0  0
    6.3979   -5.1492   -0.0000 C   0  0  0  0  0  0  0  0  0  0  0  0
   -7.8725    1.5816   -0.0000 C   0  0  0  0  0  0  0  0  0  0  0  0
    6.3860   -6.6357   -0.0000 C   0  0  0  0  0  0  0  0  0  0  0  0
   -9.1925    2.3427   -0.0000 N   0  0  0  0  0  0  0  0  0  0  0  0
  -10.5006    1.6054   -0.0000 O   0  0  0  0  0  0  0  0  0  0  0  0
   -9.2044    3.8530   -0.0000 O   0  0  0  0  0  0  0  0  0  0  0  0
  1  2  1  0  0  0  0
  1  3  1  0  0  0  0
  2  4  2  0  0  0  0
  2  5  1  0  0  0  0
  3  6  1  0  0  0  0
  4  7  1  0  0  0  0
  5  8  2  0  0  0  0
  6  9  2  0  0  0  0
  6 10  1  0  0  0  0
  7 11  1  0  0  0  0
  7 12  2  0  0  0  0
 10 13  1  0  0  0  0
 12 14  1  0  0  0  0
 13 15  2  0  0  0  0
 13 16  1  0  0  0  0
 14 17  2  0  0  0  0
 14 18  1  0  0  0  0
 15 19  1  0  0  0  0
 16 20  2  0  0  0  0
 18 21  1  0  0  0  0
 19 22  2  0  0  0  0
 21 23  1  0  0  0  0
 22 24  1  0  0  0  0
 24 25  2  0  0  0  0
 24 26  1  0  0  0  0
  8 12  1  0  0  0  0
 20 22  1  0  0  0  0
M  CHG  2  24   1  26  -1
M  END
>  <MolRegNo>
348976

>  <m>
=

>  <Value>
250000

>  <Unit>
nM

>  <Type>
IC50

>  <Ligand Efficiency>


>  <Binding Efficiency>


>  <Surface Efficiency>


>  <Assay Index>
262926

>  <Assay Category>


>  <Assay Organism>
SARS coronavirus

>  <Target ID>
20012

>  <Target Name>
SARS coronavirus 3C-like proteinase

>  <Target Organism>
SARS coronavirus

>  <Target Description>
Target is a single protein chain

>  <Sequence Accession>
P0C6U8

>  <Reference>
J. Med. Chem. 49 (12), 3485-3495 (2006)

>  <Pubmed ID>
16759091

>  <DOI>
10.1021/jm050852f

>  <InChI-Key>
UOLRFSMMZCPIDL-UHFFFAOYSA-N

>  <Molecular Formula>
C15H15N5O5S

>  <Monoisotopic Mass>
377.079390

>  <Druglikeness>
-7.4253

$$$$
Compound 542
Actelion Java MolfileCreator 1.0

 17 18  0  0  0  0  0  0  0  0999 V2000
    0.0000   -0.0000   -0.0000 O   0  0  0  0  0  0  0  0  0  0  0  0
   -1.5007    0.0117   -0.0000 C   0  0  0  0  0  0  0  0  0  0  0  0
   -2.3917   -1.1958   -0.0000 N   0  0  0  0  0  0  0  0  0  0  0  0
   -2.3917    1.2427   -0.0000 C   0  0  0  0  0  0  0  0  0  0  0  0
   -3.8337   -0.7269   -0.0000 C   0  0  0  0  0  0  0  0  0  0  0  0
   -1.9462   -2.6027   -0.0000 C   0  0  0  0  0  0  0  0  0  0  0  0
   -1.9462    2.6731   -0.0000 O   0  0  0  0  0  0  0  0  0  0  0  0
   -3.8337    0.7855   -0.0000 C   0  0  0  0  0  0  0  0  0  0  0  0
   -5.1351   -1.4655   -0.0000 C   0  0  0  0  0  0  0  0  0  0  0  0
   -2.9544   -3.6930   -0.0000 C   0  0  0  0  0  0  0  0  0  0  0  0
   -5.1468    1.5358   -0.0000 C   0  0  0  0  0  0  0  0  0  0  0  0
   -6.4364   -0.7034   -0.0000 C   0  0  0  0  0  0  0  0  0  0  0  0
   -2.5089   -5.0999   -0.0000 C   0  0  0  0  0  0  0  0  0  0  0  0
   -6.4364    0.7972   -0.0000 C   0  0  0  0  0  0  0  0  0  0  0  0
   -7.7378    1.5476   -0.0000 C   0  0  0  0  0  0  0  0  0  0  0  0
   -7.7495    3.0482   -0.0000 O   0  0  0  0  0  0  0  0  0  0  0  0
   -9.0391    0.8089   -0.0000 N   0  0  0  0  0  0  0  0  0  0  0  0
  1  2  2  0  0  0  0
  2  3  1  0  0  0  0
  2  4  1  0  0  0  0
  3  5  1  0  0  0  0
  3  6  1  0  0  0  0
  4  7  2  0  0  0  0
  4  8  1  0  0  0  0
  5  9  1  0  0  0  0
  6 10  1  0  0  0  0
  8 11  1  0  0  0  0
  9 12  2  0  0  0  0
 10 13  1  0  0  0  0
 11 14  2  0  0  0  0
 14 15  1  0  0  0  0
 15 16  2  0  0  0  0
 15 17  1  0  0  0  0
  5  8  2  0  0  0  0
 12 14  1  0  0  0  0
M  END
>  <MolRegNo>
348528

>  <m>
=

>  <Value>
25000

>  <Unit>
nM

>  <Type>
IC50

>  <Ligand Efficiency>
0.37

>  <Binding Efficiency>
19.82

>  <Surface Efficiency>
5.72

>  <Assay Index>
262886

>  <Assay Category>


>  <Assay Organism>
SARS coronavirus

>  <Target ID>
20012

>  <Target Name>
SARS coronavirus 3C-like proteinase

>  <Target Organism>
SARS coronavirus

>  <Target Description>
Target is a single protein chain

>  <Sequence Accession>
P0C6U8

>  <Reference>
J. Med. Chem. 49 (12), 3440-3443 (2006)

>  <Pubmed ID>
16759084

>  <DOI>
10.1021/jm0602357

>  <InChI-Key>
UPFRLUKDHMINPH-UHFFFAOYSA-N

>  <Molecular Formula>
C12H12N2O3

>  <Monoisotopic Mass>
232.084793

>  <Druglikeness>
0.81754

$$$$
Compound 543
Actelion Java MolfileCreator 1.0

 17 18  0  0  0  0  0  0  0  0999 V2000
    0.0000   -0.0000   -0.0000 O   0  0  0  0  0  0  0  0  0  0  0  0
   -1.5007    0.0117   -0.0000 C   0  0  0  0  0  0  0  0  0  0  0  0
   -2.3917   -1.1958   -0.0000 N   0  0  0  0  0  0  0  0  0  0  0  0
   -2.3917    1.2427   -0.0000 C   0  0  0  0  0  0  0  0  0  0  0  0
   -3.8337   -0.7269   -0.0000 C   0  0  0  0  0  0  0  0  0  0  0  0
   -1.9462   -2.6027   -0.0000 C   0  0  0  0  0  0  0  0  0  0  0  0
   -1.9462    2.6731   -0.0000 O   0  0  0  0  0  0  0  0  0  0  0  0
   -3.8337    0.7855   -0.0000 C   0  0  0  0  0  0  0  0  0  0  0  0
   -5.1351   -1.4655   -0.0000 C   0  0  0  0  0  0  0  0  0  0  0  0
   -2.9544   -3.6930   -0.0000 C   0  0  0  0  0  0  0  0  0  0  0  0
   -5.1468    1.5358   -0.0000 C   0  0  0  0  0  0  0  0  0  0  0  0
   -6.4364   -0.7034   -0.0000 C   0  0  0  0  0  0  0  0  0  0  0  0
   -2.5089   -5.0999   -0.0000 C   0  0  0  0  0  0  0  0  0  0  0  0
   -6.4364    0.7972   -0.0000 C   0  0  0  0  0  0  0  0  0  0  0  0
   -7.7378    1.5476   -0.0000 C   0  0  0  0  0  0  0  0  0  0  0  0
   -7.7495    3.0482   -0.0000 O   0  0  0  0  0  0  0  0  0  0  0  0
   -9.0391    0.8089   -0.0000 N   0  0  0  0  0  0  0  0  0  0  0  0
  1  2  2  0  0  0  0
  2  3  1  0  0  0  0
  2  4  1  0  0  0  0
  3  5  1  0  0  0  0
  3  6  1  0  0  0  0
  4  7  2  0  0  0  0
  4  8  1  0  0  0  0
  5  9  1  0  0  0  0
  6 10  1  0  0  0  0
  8 11  1  0  0  0  0
  9 12  2  0  0  0  0
 10 13  1  0  0  0  0
 11 14  2  0  0  0  0
 14 15  1  0  0  0  0
 15 16  2  0  0  0  0
 15 17  1  0  0  0  0
  5  8  2  0  0  0  0
 12 14  1  0  0  0  0
M  END
>  <MolRegNo>
348528

>  <m>
=

>  <Value>
25119

>  <Unit>
nM

>  <Type>
Ki

>  <Ligand Efficiency>


>  <Binding Efficiency>


>  <Surface Efficiency>


>  <Assay Index>
262886

>  <Assay Category>


>  <Assay Organism>
SARS coronavirus

>  <Target ID>
20012

>  <Target Name>
SARS coronavirus 3C-like proteinase

>  <Target Organism>
SARS coronavirus

>  <Target Description>
Target is a single protein chain

>  <Sequence Accession>
P0C6U8

>  <Reference>
J. Med. Chem. 49 (12), 3440-3443 (2006)

>  <Pubmed ID>
16759084

>  <DOI>
10.1021/jm0602357

>  <InChI-Key>
UPFRLUKDHMINPH-UHFFFAOYSA-N

>  <Molecular Formula>
C12H12N2O3

>  <Monoisotopic Mass>
232.084793

>  <Druglikeness>
0.81754

$$$$
Compound 544
Actelion Java MolfileCreator 1.0

 17 18  0  0  0  0  0  0  0  0999 V2000
    0.0000   -0.0000   -0.0000 O   0  0  0  0  0  0  0  0  0  0  0  0
   -1.5007    0.0117   -0.0000 C   0  0  0  0  0  0  0  0  0  0  0  0
   -2.3917   -1.1958   -0.0000 N   0  0  0  0  0  0  0  0  0  0  0  0
   -2.3917    1.2427   -0.0000 C   0  0  0  0  0  0  0  0  0  0  0  0
   -3.8337   -0.7269   -0.0000 C   0  0  0  0  0  0  0  0  0  0  0  0
   -1.9462   -2.6027   -0.0000 C   0  0  0  0  0  0  0  0  0  0  0  0
   -1.9462    2.6731   -0.0000 O   0  0  0  0  0  0  0  0  0  0  0  0
   -3.8337    0.7855   -0.0000 C   0  0  0  0  0  0  0  0  0  0  0  0
   -5.1351   -1.4655   -0.0000 C   0  0  0  0  0  0  0  0  0  0  0  0
   -2.9544   -3.6930   -0.0000 C   0  0  0  0  0  0  0  0  0  0  0  0
   -5.1468    1.5358   -0.0000 C   0  0  0  0  0  0  0  0  0  0  0  0
   -6.4364   -0.7034   -0.0000 C   0  0  0  0  0  0  0  0  0  0  0  0
   -2.5089   -5.0999   -0.0000 C   0  0  0  0  0  0  0  0  0  0  0  0
   -6.4364    0.7972   -0.0000 C   0  0  0  0  0  0  0  0  0  0  0  0
   -7.7378    1.5476   -0.0000 C   0  0  0  0  0  0  0  0  0  0  0  0
   -7.7495    3.0482   -0.0000 O   0  0  0  0  0  0  0  0  0  0  0  0
   -9.0391    0.8089   -0.0000 N   0  0  0  0  0  0  0  0  0  0  0  0
  1  2  2  0  0  0  0
  2  3  1  0  0  0  0
  2  4  1  0  0  0  0
  3  5  1  0  0  0  0
  3  6  1  0  0  0  0
  4  7  2  0  0  0  0
  4  8  1  0  0  0  0
  5  9  1  0  0  0  0
  6 10  1  0  0  0  0
  8 11  1  0  0  0  0
  9 12  2  0  0  0  0
 10 13  1  0  0  0  0
 11 14  2  0  0  0  0
 14 15  1  0  0  0  0
 15 16  2  0  0  0  0
 15 17  1  0  0  0  0
  5  8  2  0  0  0  0
 12 14  1  0  0  0  0
M  END
>  <MolRegNo>
348528

>  <m>
=

>  <Value>
25000

>  <Unit>
nM

>  <Type>
Ki

>  <Ligand Efficiency>
0.37

>  <Binding Efficiency>
19.82

>  <Surface Efficiency>
5.72

>  <Assay Index>
262886

>  <Assay Category>


>  <Assay Organism>
SARS coronavirus

>  <Target ID>
20012

>  <Target Name>
SARS coronavirus 3C-like proteinase

>  <Target Organism>
SARS coronavirus

>  <Target Description>
Target is a single protein chain

>  <Sequence Accession>
P0C6U8

>  <Reference>
J. Med. Chem. 49 (12), 3440-3443 (2006)

>  <Pubmed ID>
16759084

>  <DOI>
10.1021/jm0602357

>  <InChI-Key>
UPFRLUKDHMINPH-UHFFFAOYSA-N

>  <Molecular Formula>
C12H12N2O3

>  <Monoisotopic Mass>
232.084793

>  <Druglikeness>
0.81754

$$$$
Compound 545
Actelion Java MolfileCreator 1.0

 15 16  0  0  0  0  0  0  0  0999 V2000
    0.0000   -0.0000   -0.0000 Cl  0  0  0  0  0  0  0  0  0  0  0  0
   -1.3008    0.7568   -0.0000 C   0  0  0  0  0  0  0  0  0  0  0  0
   -1.3126    2.2705   -0.0000 N   0  0  0  0  0  0  0  0  0  0  0  0
   -2.6134    0.0237   -0.0000 C   0  0  0  0  0  0  0  0  0  0  0  0
   -2.6134    3.0273   -0.0000 C   0  0  0  0  0  0  0  0  0  0  0  0
   -3.9142    0.7805   -0.0000 C   0  0  0  0  0  0  0  0  0  0  0  0
   -3.9142    2.2941   -0.0000 C   0  0  0  0  0  0  0  0  0  0  0  0
   -5.2150    3.0510   -0.0000 O   0  0  0  0  0  0  0  0  0  0  0  0
   -6.5159    2.3178   -0.0000 C   0  0  0  0  0  0  0  0  0  0  0  0
   -6.5277    0.8396   -0.0000 O   0  0  0  0  0  0  0  0  0  0  0  0
   -7.8167    3.0746   -0.0000 C   0  0  0  0  0  0  0  0  0  0  0  0
   -9.1884    2.4834   -0.0000 S   0  0  0  0  0  0  0  0  0  0  0  0
   -7.9822    4.5646   -0.0000 C   0  0  0  0  0  0  0  0  0  0  0  0
  -10.1936    3.6068   -0.0000 C   0  0  0  0  0  0  0  0  0  0  0  0
   -9.4486    4.8839   -0.0000 C   0  0  0  0  0  0  0  0  0  0  0  0
  1  2  1  0  0  0  0
  2  3  2  0  0  0  0
  2  4  1  0  0  0  0
  3  5  1  0  0  0  0
  4  6  2  0  0  0  0
  5  7  2  0  0  0  0
  7  8  1  0  0  0  0
  8  9  1  0  0  0  0
  9 10  2  0  0  0  0
  9 11  1  0  0  0  0
 11 12  1  0  0  0  0
 11 13  2  0  0  0  0
 12 14  1  0  0  0  0
 13 15  1  0  0  0  0
  6  7  1  0  0  0  0
 14 15  2  0  0  0  0
M  END
>  <MolRegNo>
371837

>  <m>
=

>  <Value>
13

>  <Unit>
%

>  <Type>
Inhibition

>  <Ligand Efficiency>


>  <Binding Efficiency>


>  <Surface Efficiency>


>  <Assay Index>
278390

>  <Assay Category>


>  <Assay Organism>
SARS coronavirus

>  <Target ID>
20012

>  <Target Name>
SARS coronavirus 3C-like proteinase

>  <Target Organism>
SARS coronavirus

>  <Target Description>
Target is a single protein chain

>  <Sequence Accession>
P0C6U8

>  <Reference>
J. Med. Chem. 50 (8), 1850-1864 (2007)

>  <Pubmed ID>
17381079

>  <DOI>
10.1021/jm061425k

>  <InChI-Key>
UPGYQUJMVWQOGL-UHFFFAOYSA-N

>  <Molecular Formula>
C10H6NO2ClS

>  <Monoisotopic Mass>
238.980776

>  <Druglikeness>
1.8212

$$$$
Compound 546
Actelion Java MolfileCreator 1.0

 14 15  0  0  0  0  0  0  0  0999 V2000
    0.0000   -0.0000   -0.0000 S   0  0  0  0  0  0  0  0  0  0  0  0
    1.3547    0.6298   -0.0000 C   0  0  0  0  0  0  0  0  0  0  0  0
   -1.0220    1.1289   -0.0000 C   0  0  0  0  0  0  0  0  0  0  0  0
    2.6500   -0.1069   -0.0000 C   0  0  0  0  0  0  0  0  0  0  0  0
    1.1883    2.1390   -0.0000 C   0  0  0  0  0  0  0  0  0  0  0  0
   -0.2852    2.4480   -0.0000 C   0  0  0  0  0  0  0  0  0  0  0  0
    2.6381   -1.6042   -0.0000 O   0  0  0  0  0  0  0  0  0  0  0  0
    3.9453    0.6536   -0.0000 N   0  0  0  0  0  0  0  0  0  0  0  0
    5.2405   -0.0832   -0.0000 C   0  0  0  0  0  0  0  0  0  0  0  0
    5.2286   -1.5805   -0.0000 C   0  0  0  0  0  0  0  0  0  0  0  0
    6.5239    0.6773   -0.0000 C   0  0  0  0  0  0  0  0  0  0  0  0
    6.5239   -2.3172   -0.0000 N   0  0  0  0  0  0  0  0  0  0  0  0
    7.8192   -0.0594   -0.0000 C   0  0  0  0  0  0  0  0  0  0  0  0
    7.8192   -1.5567   -0.0000 C   0  0  0  0  0  0  0  0  0  0  0  0
  1  2  1  0  0  0  0
  1  3  1  0  0  0  0
  2  4  1  0  0  0  0
  2  5  2  0  0  0  0
  3  6  2  0  0  0  0
  4  7  2  0  0  0  0
  4  8  1  0  0  0  0
  8  9  1  0  0  0  0
  9 10  2  0  0  0  0
  9 11  1  0  0  0  0
 10 12  1  0  0  0  0
 11 13  2  0  0  0  0
 12 14  2  0  0  0  0
  5  6  1  0  0  0  0
 13 14  1  0  0  0  0
M  END
>  <MolRegNo>
371796

>  <m>
=

>  <Value>
13

>  <Unit>
%

>  <Type>
Inhibition

>  <Ligand Efficiency>


>  <Binding Efficiency>


>  <Surface Efficiency>


>  <Assay Index>
278390

>  <Assay Category>


>  <Assay Organism>
SARS coronavirus

>  <Target ID>
20012

>  <Target Name>
SARS coronavirus 3C-like proteinase

>  <Target Organism>
SARS coronavirus

>  <Target Description>
Target is a single protein chain

>  <Sequence Accession>
P0C6U8

>  <Reference>
J. Med. Chem. 50 (8), 1850-1864 (2007)

>  <Pubmed ID>
17381079

>  <DOI>
10.1021/jm061425k

>  <InChI-Key>
UPLHUDRMLWWFRE-UHFFFAOYSA-N

>  <Molecular Formula>
C10H8N2OS

>  <Monoisotopic Mass>
204.035733

>  <Druglikeness>
3.2828

$$$$
Compound 547
Actelion Java MolfileCreator 1.0

 20 22  0  0  1  0  0  0  0  0999 V2000
    0.0000   -0.0000   -0.0000 O   0  0  0  0  0  0  0  0  0  0  0  0
    1.2433   -0.8571   -0.0000 C   0  0  0  0  0  0  0  0  0  0  0  0
   -1.2554   -0.8691   -0.0000 C   0  0  0  0  0  0  0  0  0  0  0  0
    2.6919   -0.3742   -0.0000 N   0  0  0  0  0  0  0  0  0  0  0  0
    0.7605   -2.2453   -0.0000 C   0  0  0  0  0  0  0  0  0  0  0  0
   -0.7846   -2.2453   -0.0000 C   0  0  0  0  0  0  0  0  0  0  0  0
   -2.7281   -0.3984   -0.0000 C   0  0  0  0  0  0  0  0  0  0  0  0
    3.9232   -1.2313   -0.0000 C   0  0  0  0  0  0  0  0  0  0  0  0
    3.1506    1.0261   -0.0000 C   0  0  0  0  0  0  0  0  0  0  0  0
    1.6417   -3.4282   -0.0000 O   0  0  0  0  0  0  0  0  0  0  0  0
   -1.6900   -3.4282   -0.0000 O   0  0  0  0  0  0  0  0  0  0  0  0
   -3.0661    1.0502   -0.0000 O   0  0  0  0  0  0  0  0  0  0  0  0
    4.0680   -2.6798   -0.0000 N   0  0  0  0  0  0  0  0  0  0  0  0
    5.1544   -0.3501   -0.0000 C   0  0  0  0  0  0  0  0  0  0  0  0
    4.6716    1.0381   -0.0000 N   0  0  0  0  0  0  0  0  0  0  0  0
    5.4562   -3.2592   -0.0000 C   0  0  0  0  0  0  0  0  0  0  0  0
    6.5426   -0.9416   -0.0000 C   0  0  0  0  0  0  0  0  0  0  0  0
    6.6875   -2.3901   -0.0000 N   0  0  0  0  0  0  0  0  0  0  0  0
    7.7618   -0.0121   -0.0000 O   0  0  0  0  0  0  0  0  0  0  0  0
    9.1621   -0.6156   -0.0000 C   0  0  0  0  0  0  0  0  0  0  0  0
  1  2  1  0  0  0  0
  1  3  1  0  0  0  0
  2  4  1  1  0  0  0
  2  5  1  0  0  0  0
  3  6  1  0  0  0  0
  3  7  1  1  0  0  0
  4  8  1  0  0  0  0
  4  9  1  0  0  0  0
  5 10  1  6  0  0  0
  6 11  1  6  0  0  0
  7 12  1  0  0  0  0
  8 13  2  0  0  0  0
  8 14  1  0  0  0  0
  9 15  2  0  0  0  0
 13 16  1  0  0  0  0
 14 17  2  0  0  0  0
 16 18  2  0  0  0  0
 17 19  1  0  0  0  0
 19 20  1  0  0  0  0
  5  6  1  0  0  0  0
 14 15  1  0  0  0  0
 17 18  1  0  0  0  0
M  END
>  <MolRegNo>
386741

>  <m>
>

>  <Value>
3.0e5

>  <Unit>
nM

>  <Type>
IC50

>  <Ligand Efficiency>


>  <Binding Efficiency>


>  <Surface Efficiency>


>  <Assay Index>
287336

>  <Assay Category>


>  <Assay Organism>
SARS coronavirus

>  <Target ID>
100499

>  <Target Name>
SARS coronavirus

>  <Target Organism>
SARS coronavirus

>  <Target Description>
Target is a complete organism

>  <Sequence Accession>


>  <Reference>
Bioorg. Med. Chem. Lett. 17 (9), 2470-2473 (2007)

>  <Pubmed ID>
17336519

>  <DOI>
10.1016/j.bmcl.2007.02.026

>  <InChI-Key>
UQQHOWKTDKKTHO-LEIICMHDSA-N

>  <Molecular Formula>
C11H14N4O5

>  <Monoisotopic Mass>
282.096421

>  <Druglikeness>
-0.8007

$$$$
Compound 548
Actelion Java MolfileCreator 1.0

 30 33  0  0  0  0  0  0  0  0999 V2000
    0.0000   -0.0000   -0.0000 Cl  0  0  0  0  0  0  0  0  0  0  0  0
    0.6050   -1.3523   -0.0000 C   0  0  0  0  0  0  0  0  0  0  0  0
   -0.2728   -2.5622   -0.0000 C   0  0  0  0  0  0  0  0  0  0  0  0
    2.0759   -1.4828   -0.0000 C   0  0  0  0  0  0  0  0  0  0  0  0
   -1.7675   -2.3962   -0.0000 C   0  0  0  0  0  0  0  0  0  0  0  0
    0.3203   -3.9145   -0.0000 C   0  0  0  0  0  0  0  0  0  0  0  0
    2.6808   -2.8351   -0.0000 C   0  0  0  0  0  0  0  0  0  0  0  0
   -2.5385   -1.0913   -0.0000 N   0  0  0  0  0  0  0  0  0  0  0  0
   -2.7757   -3.4993   -0.0000 C   0  0  0  0  0  0  0  0  0  0  0  0
    1.7912   -4.0569   -0.0000 C   0  0  0  0  0  0  0  0  0  0  0  0
   -4.0094   -1.3997   -0.0000 O   0  0  0  0  0  0  0  0  0  0  0  0
   -4.1518   -2.8825   -0.0000 C   0  0  0  0  0  0  0  0  0  0  0  0
   -5.4566   -3.6298   -0.0000 C   0  0  0  0  0  0  0  0  0  0  0  0
   -6.7614   -2.8825   -0.0000 N   0  0  0  0  0  0  0  0  0  0  0  0
   -5.4566   -5.1244   -0.0000 C   0  0  0  0  0  0  0  0  0  0  0  0
   -8.0544   -3.6298   -0.0000 C   0  0  0  0  0  0  0  0  0  0  0  0
   -6.7614   -5.8599   -0.0000 C   0  0  0  0  0  0  0  0  0  0  0  0
   -9.3592   -2.8706   -0.0000 S   0  0  0  0  0  0  0  0  0  0  0  0
   -8.0781   -5.1126   -0.0000 N   0  0  0  0  0  0  0  0  0  0  0  0
  -10.6641   -3.6061   -0.0000 C   0  0  0  0  0  0  0  0  0  0  0  0
  -11.9689   -2.8469   -0.0000 C   0  0  0  0  0  0  0  0  0  0  0  0
  -11.9808   -1.3404   -0.0000 O   0  0  0  0  0  0  0  0  0  0  0  0
  -13.2737   -3.5824   -0.0000 N   0  0  0  0  0  0  0  0  0  0  0  0
  -14.5786   -2.8232   -0.0000 C   0  0  0  0  0  0  0  0  0  0  0  0
  -15.8953   -3.5586   -0.0000 C   0  0  0  0  0  0  0  0  0  0  0  0
  -14.5904   -1.3048   -0.0000 C   0  0  0  0  0  0  0  0  0  0  0  0
  -17.2001   -2.7995   -0.0000 C   0  0  0  0  0  0  0  0  0  0  0  0
  -15.9071   -0.5575   -0.0000 C   0  0  0  0  0  0  0  0  0  0  0  0
  -17.2120   -1.2930   -0.0000 C   0  0  0  0  0  0  0  0  0  0  0  0
  -18.5168   -0.5338   -0.0000 Cl  0  0  0  0  0  0  0  0  0  0  0  0
  1  2  1  0  0  0  0
  2  3  2  0  0  0  0
  2  4  1  0  0  0  0
  3  5  1  0  0  0  0
  3  6  1  0  0  0  0
  4  7  2  0  0  0  0
  5  8  2  0  0  0  0
  5  9  1  0  0  0  0
  6 10  2  0  0  0  0
  8 11  1  0  0  0  0
  9 12  2  0  0  0  0
 12 13  1  0  0  0  0
 13 14  2  0  0  0  0
 13 15  1  0  0  0  0
 14 16  1  0  0  0  0
 15 17  2  0  0  0  0
 16 18  1  0  0  0  0
 16 19  2  0  0  0  0
 18 20  1  0  0  0  0
 20 21  1  0  0  0  0
 21 22  2  0  0  0  0
 21 23  1  0  0  0  0
 23 24  1  0  0  0  0
 24 25  2  0  0  0  0
 24 26  1  0  0  0  0
 25 27  1  0  0  0  0
 26 28  2  0  0  0  0
 27 29  2  0  0  0  0
 29 30  1  0  0  0  0
  7 10  1  0  0  0  0
 11 12  1  0  0  0  0
 17 19  1  0  0  0  0
 28 29  1  0  0  0  0
M  END
>  <MolRegNo>
349608

>  <m>
=

>  <Value>
6.6069e13

>  <Unit>
nM

>  <Type>
IC50

>  <Ligand Efficiency>


>  <Binding Efficiency>


>  <Surface Efficiency>


>  <Assay Index>
262926

>  <Assay Category>


>  <Assay Organism>
SARS coronavirus

>  <Target ID>
20012

>  <Target Name>
SARS coronavirus 3C-like proteinase

>  <Target Organism>
SARS coronavirus

>  <Target Description>
Target is a single protein chain

>  <Sequence Accession>
P0C6U8

>  <Reference>
J. Med. Chem. 49 (12), 3485-3495 (2006)

>  <Pubmed ID>
16759091

>  <DOI>
10.1021/jm050852f

>  <InChI-Key>
UQVHELVNDYDRGX-UHFFFAOYSA-N

>  <Molecular Formula>
C21H14N4O2Cl2S

>  <Monoisotopic Mass>
456.021450

>  <Druglikeness>
3.3019

$$$$
Compound 549
Actelion Java MolfileCreator 1.0

 30 33  0  0  0  0  0  0  0  0999 V2000
    0.0000   -0.0000   -0.0000 Cl  0  0  0  0  0  0  0  0  0  0  0  0
    0.6050   -1.3523   -0.0000 C   0  0  0  0  0  0  0  0  0  0  0  0
   -0.2728   -2.5622   -0.0000 C   0  0  0  0  0  0  0  0  0  0  0  0
    2.0759   -1.4828   -0.0000 C   0  0  0  0  0  0  0  0  0  0  0  0
   -1.7675   -2.3962   -0.0000 C   0  0  0  0  0  0  0  0  0  0  0  0
    0.3203   -3.9145   -0.0000 C   0  0  0  0  0  0  0  0  0  0  0  0
    2.6808   -2.8351   -0.0000 C   0  0  0  0  0  0  0  0  0  0  0  0
   -2.5385   -1.0913   -0.0000 N   0  0  0  0  0  0  0  0  0  0  0  0
   -2.7757   -3.4993   -0.0000 C   0  0  0  0  0  0  0  0  0  0  0  0
    1.7912   -4.0569   -0.0000 C   0  0  0  0  0  0  0  0  0  0  0  0
   -4.0094   -1.3997   -0.0000 O   0  0  0  0  0  0  0  0  0  0  0  0
   -4.1518   -2.8825   -0.0000 C   0  0  0  0  0  0  0  0  0  0  0  0
   -5.4566   -3.6298   -0.0000 C   0  0  0  0  0  0  0  0  0  0  0  0
   -6.7614   -2.8825   -0.0000 N   0  0  0  0  0  0  0  0  0  0  0  0
   -5.4566   -5.1244   -0.0000 C   0  0  0  0  0  0  0  0  0  0  0  0
   -8.0544   -3.6298   -0.0000 C   0  0  0  0  0  0  0  0  0  0  0  0
   -6.7614   -5.8599   -0.0000 C   0  0  0  0  0  0  0  0  0  0  0  0
   -9.3592   -2.8706   -0.0000 S   0  0  0  0  0  0  0  0  0  0  0  0
   -8.0781   -5.1126   -0.0000 N   0  0  0  0  0  0  0  0  0  0  0  0
  -10.6641   -3.6061   -0.0000 C   0  0  0  0  0  0  0  0  0  0  0  0
  -11.9689   -2.8469   -0.0000 C   0  0  0  0  0  0  0  0  0  0  0  0
  -11.9808   -1.3404   -0.0000 O   0  0  0  0  0  0  0  0  0  0  0  0
  -13.2737   -3.5824   -0.0000 N   0  0  0  0  0  0  0  0  0  0  0  0
  -14.5786   -2.8232   -0.0000 C   0  0  0  0  0  0  0  0  0  0  0  0
  -15.8953   -3.5586   -0.0000 C   0  0  0  0  0  0  0  0  0  0  0  0
  -14.5904   -1.3048   -0.0000 C   0  0  0  0  0  0  0  0  0  0  0  0
  -17.2001   -2.7995   -0.0000 C   0  0  0  0  0  0  0  0  0  0  0  0
  -15.9071   -0.5575   -0.0000 C   0  0  0  0  0  0  0  0  0  0  0  0
  -17.2120   -1.2930   -0.0000 C   0  0  0  0  0  0  0  0  0  0  0  0
  -18.5168   -0.5338   -0.0000 Cl  0  0  0  0  0  0  0  0  0  0  0  0
  1  2  1  0  0  0  0
  2  3  2  0  0  0  0
  2  4  1  0  0  0  0
  3  5  1  0  0  0  0
  3  6  1  0  0  0  0
  4  7  2  0  0  0  0
  5  8  2  0  0  0  0
  5  9  1  0  0  0  0
  6 10  2  0  0  0  0
  8 11  1  0  0  0  0
  9 12  2  0  0  0  0
 12 13  1  0  0  0  0
 13 14  2  0  0  0  0
 13 15  1  0  0  0  0
 14 16  1  0  0  0  0
 15 17  2  0  0  0  0
 16 18  1  0  0  0  0
 16 19  2  0  0  0  0
 18 20  1  0  0  0  0
 20 21  1  0  0  0  0
 21 22  2  0  0  0  0
 21 23  1  0  0  0  0
 23 24  1  0  0  0  0
 24 25  2  0  0  0  0
 24 26  1  0  0  0  0
 25 27  1  0  0  0  0
 26 28  2  0  0  0  0
 27 29  2  0  0  0  0
 29 30  1  0  0  0  0
  7 10  1  0  0  0  0
 11 12  1  0  0  0  0
 17 19  1  0  0  0  0
 28 29  1  0  0  0  0
M  END
>  <MolRegNo>
349608

>  <m>
=

>  <Value>
15000

>  <Unit>
nM

>  <Type>
IC50

>  <Ligand Efficiency>
0.22

>  <Binding Efficiency>
10.55

>  <Surface Efficiency>
5.96

>  <Assay Index>
262926

>  <Assay Category>


>  <Assay Organism>
SARS coronavirus

>  <Target ID>
20012

>  <Target Name>
SARS coronavirus 3C-like proteinase

>  <Target Organism>
SARS coronavirus

>  <Target Description>
Target is a single protein chain

>  <Sequence Accession>
P0C6U8

>  <Reference>
J. Med. Chem. 49 (12), 3485-3495 (2006)

>  <Pubmed ID>
16759091

>  <DOI>
10.1021/jm050852f

>  <InChI-Key>
UQVHELVNDYDRGX-UHFFFAOYSA-N

>  <Molecular Formula>
C21H14N4O2Cl2S

>  <Monoisotopic Mass>
456.021450

>  <Druglikeness>
3.3019

$$$$
Compound 550
Actelion Java MolfileCreator 1.0

 28 31  0  0  0  0  0  0  0  0999 V2000
    0.0000   -0.0000   -0.0000 O   0  0  0  0  0  0  0  0  0  0  0  0
   -1.1909    0.3889   -0.0000 C   0  0  0  0  0  0  0  0  0  0  0  0
   -2.4548   -0.5104   -0.0000 N   0  0  0  0  0  0  0  0  0  0  0  0
   -1.6892    1.8472   -0.0000 C   0  0  0  0  0  0  0  0  0  0  0  0
   -3.7186    0.4132   -0.0000 N   0  0  0  0  0  0  0  0  0  0  0  0
   -2.4669   -2.0416   -0.0000 C   0  0  0  0  0  0  0  0  0  0  0  0
   -3.2325    1.8715   -0.0000 C   0  0  0  0  0  0  0  0  0  0  0  0
   -0.8021    3.1110   -0.0000 C   0  0  0  0  0  0  0  0  0  0  0  0
   -3.8766   -2.6978   -0.0000 C   0  0  0  0  0  0  0  0  0  0  0  0
   -1.2031   -2.8922   -0.0000 C   0  0  0  0  0  0  0  0  0  0  0  0
   -3.9617    2.8801   -0.0000 C   0  0  0  0  0  0  0  0  0  0  0  0
    0.7170    2.9652   -0.0000 C   0  0  0  0  0  0  0  0  0  0  0  0
   -3.9981   -4.2290   -0.0000 C   0  0  0  0  0  0  0  0  0  0  0  0
   -1.3246   -4.4234   -0.0000 C   0  0  0  0  0  0  0  0  0  0  0  0
    1.7378    4.1196   -0.0000 O   0  0  0  0  0  0  0  0  0  0  0  0
    1.4826    1.6406   -0.0000 C   0  0  0  0  0  0  0  0  0  0  0  0
   -5.4078   -4.8852   -0.0000 C   0  0  0  0  0  0  0  0  0  0  0  0
   -2.7343   -5.0797   -0.0000 C   0  0  0  0  0  0  0  0  0  0  0  0
    3.1110    3.4999   -0.0000 C   0  0  0  0  0  0  0  0  0  0  0  0
    2.9773    1.9808   -0.0000 C   0  0  0  0  0  0  0  0  0  0  0  0
   -6.4407   -4.1804   -0.0000 O   0  0  0  0  0  0  0  0  0  0  0  0
   -5.5171   -6.1005   -0.0000 O   0  0  0  0  0  0  0  0  0  0  0  0
    4.4356    4.2898   -0.0000 C   0  0  0  0  0  0  0  0  0  0  0  0
    5.7602    3.5363   -0.0000 C   0  0  0  0  0  0  0  0  0  0  0  0
    4.4234    5.8453   -0.0000 C   0  0  0  0  0  0  0  0  0  0  0  0
    7.0848    4.3141   -0.0000 C   0  0  0  0  0  0  0  0  0  0  0  0
    5.7480    6.6230   -0.0000 C   0  0  0  0  0  0  0  0  0  0  0  0
    7.0726    5.8696   -0.0000 C   0  0  0  0  0  0  0  0  0  0  0  0
  1  2  2  0  0  0  0
  2  3  1  0  0  0  0
  2  4  1  0  0  0  0
  3  5  1  0  0  0  0
  3  6  1  0  0  0  0
  4  7  1  0  0  0  0
  4  8  2  0  0  0  0
  6  9  2  0  0  0  0
  6 10  1  0  0  0  0
  7 11  1  0  0  0  0
  8 12  1  0  0  0  0
  9 13  1  0  0  0  0
 10 14  2  0  0  0  0
 12 15  1  0  0  0  0
 12 16  2  0  0  0  0
 13 17  1  0  0  0  0
 13 18  2  0  0  0  0
 15 19  1  0  0  0  0
 16 20  1  0  0  0  0
 17 21  2  0  0  0  0
 17 22  1  0  0  0  0
 19 23  1  0  0  0  0
 23 24  2  0  0  0  0
 23 25  1  0  0  0  0
 24 26  1  0  0  0  0
 25 27  2  0  0  0  0
 26 28  2  0  0  0  0
  5  7  2  0  0  0  0
 14 18  1  0  0  0  0
 19 20  2  0  0  0  0
 27 28  1  0  0  0  0
M  END
>  <MolRegNo>
2087896

>  <m>
>

>  <Value>
50000

>  <Unit>
nM

>  <Type>
IC50

>  <Ligand Efficiency>


>  <Binding Efficiency>


>  <Surface Efficiency>


>  <Assay Index>
1017144

>  <Assay Category>


>  <Assay Organism>
SARS coronavirus

>  <Target ID>
101075

>  <Target Name>
Replicase polyprotein 1ab

>  <Target Organism>
SARS coronavirus

>  <Target Description>
Target is a single protein chain

>  <Sequence Accession>
P0C6X7

>  <Reference>
Bioorg. Med. Chem. 24 (13), 3035-3042 (2016)

>  <Pubmed ID>
27240464

>  <DOI>
10.1016/j.bmc.2016.05.013

>  <InChI-Key>
UQWUDRZSFFOCJP-UHFFFAOYSA-N

>  <Molecular Formula>
C22H16N2O4

>  <Monoisotopic Mass>
372.111008

>  <Druglikeness>
5.2822

$$$$
Compound 551
Actelion Java MolfileCreator 1.0

 31 34  0  0  0  0  0  0  0  0999 V2000
    0.0000   -0.0000   -0.0000 S   0  0  0  0  0  0  0  0  0  0  0  0
   -1.2254    0.9042   -0.0000 C   0  0  0  0  0  0  0  0  0  0  0  0
   -0.4878   -1.4158   -0.0000 C   0  0  0  0  0  0  0  0  0  0  0  0
   -2.4628    0.0357   -0.0000 N   0  0  0  0  0  0  0  0  0  0  0  0
   -1.2254    2.4152   -0.0000 C   0  0  0  0  0  0  0  0  0  0  0  0
   -1.9988   -1.3920   -0.0000 C   0  0  0  0  0  0  0  0  0  0  0  0
   -3.9023    0.5235   -0.0000 N   0  0  0  0  0  0  0  0  0  0  0  0
   -2.5341    3.1647   -0.0000 C   0  0  0  0  0  0  0  0  0  0  0  0
    0.0714    3.1528   -0.0000 C   0  0  0  0  0  0  0  0  0  0  0  0
   -2.9030   -2.5936   -0.0000 O   0  0  0  0  0  0  0  0  0  0  0  0
   -5.2111   -0.2142   -0.0000 C   0  0  0  0  0  0  0  0  0  0  0  0
   -3.8429    2.4271   -0.0000 F   0  0  0  0  0  0  0  0  0  0  0  0
   -2.5460    4.6757   -0.0000 C   0  0  0  0  0  0  0  0  0  0  0  0
    0.0714    4.6638   -0.0000 C   0  0  0  0  0  0  0  0  0  0  0  0
   -6.5198    0.5473   -0.0000 O   0  0  0  0  0  0  0  0  0  0  0  0
   -5.2229   -1.7013   -0.0000 C   0  0  0  0  0  0  0  0  0  0  0  0
   -1.2492    5.4371   -0.0000 C   0  0  0  0  0  0  0  0  0  0  0  0
   -6.5317   -2.4390   -0.0000 C   0  0  0  0  0  0  0  0  0  0  0  0
   -3.9380   -2.4390   -0.0000 C   0  0  0  0  0  0  0  0  0  0  0  0
   -7.8404   -1.6775   -0.0000 O   0  0  0  0  0  0  0  0  0  0  0  0
   -6.5436   -3.9261   -0.0000 C   0  0  0  0  0  0  0  0  0  0  0  0
   -3.9499   -3.9380   -0.0000 C   0  0  0  0  0  0  0  0  0  0  0  0
   -5.2586   -4.6638   -0.0000 C   0  0  0  0  0  0  0  0  0  0  0  0
   -2.6650   -4.6757   -0.0000 C   0  0  0  0  0  0  0  0  0  0  0  0
   -2.6769   -6.1628   -0.0000 C   0  0  0  0  0  0  0  0  0  0  0  0
   -1.3801   -3.9142   -0.0000 C   0  0  0  0  0  0  0  0  0  0  0  0
   -3.9856   -6.9005   -0.0000 F   0  0  0  0  0  0  0  0  0  0  0  0
   -1.3920   -6.9005   -0.0000 C   0  0  0  0  0  0  0  0  0  0  0  0
   -0.0952   -4.6400   -0.0000 C   0  0  0  0  0  0  0  0  0  0  0  0
   -0.1071   -6.1390   -0.0000 C   0  0  0  0  0  0  0  0  0  0  0  0
    1.1778   -6.8767   -0.0000 F   0  0  0  0  0  0  0  0  0  0  0  0
  1  2  1  0  0  0  0
  1  3  1  0  0  0  0
  2  4  1  0  0  0  0
  2  5  1  0  0  0  0
  3  6  1  0  0  0  0
  4  7  1  0  0  0  0
  5  8  2  0  0  0  0
  5  9  1  0  0  0  0
  6 10  2  0  0  0  0
  7 11  1  0  0  0  0
  8 12  1  0  0  0  0
  8 13  1  0  0  0  0
  9 14  2  0  0  0  0
 11 15  2  0  0  0  0
 11 16  1  0  0  0  0
 13 17  2  0  0  0  0
 16 18  2  0  0  0  0
 16 19  1  0  0  0  0
 18 20  1  0  0  0  0
 18 21  1  0  0  0  0
 19 22  2  0  0  0  0
 21 23  2  0  0  0  0
 22 24  1  0  0  0  0
 24 25  2  0  0  0  0
 24 26  1  0  0  0  0
 25 27  1  0  0  0  0
 25 28  1  0  0  0  0
 26 29  2  0  0  0  0
 28 30  2  0  0  0  0
 30 31  1  0  0  0  0
  4  6  1  0  0  0  0
 14 17  1  0  0  0  0
 22 23  1  0  0  0  0
 29 30  1  0  0  0  0
M  END
>  <MolRegNo>
453135

>  <m>
<=

>  <Value>
50

>  <Unit>
%

>  <Type>
Inhibition

>  <Ligand Efficiency>


>  <Binding Efficiency>


>  <Surface Efficiency>


>  <Assay Index>
406904

>  <Assay Category>


>  <Assay Organism>
SARS coronavirus

>  <Target ID>
101075

>  <Target Name>
Replicase polyprotein 1ab

>  <Target Organism>
SARS coronavirus

>  <Target Description>
Target is a single protein chain

>  <Sequence Accession>
P0C6X7

>  <Reference>
Bioorg. Med. Chem. Lett. 18 (23), 6110-6114 (2008)

>  <Pubmed ID>
18947995

>  <DOI>
10.1016/j.bmcl.2008.10.023

>  <InChI-Key>
UTHJWIWNDNWLSF-UHFFFAOYSA-N

>  <Molecular Formula>
C22H15N2O3F3S

>  <Monoisotopic Mass>
444.075547

>  <Druglikeness>
2.5905

$$$$
Compound 552
Actelion Java MolfileCreator 1.0

 25 27  0  0  0  0  0  0  0  0999 V2000
    0.0000   -0.0000   -0.0000 S   0  0  0  0  0  0  0  0  0  0  0  0
   -1.2187    0.8756   -0.0000 C   0  0  0  0  0  0  0  0  0  0  0  0
   -0.4733   -1.4080   -0.0000 C   0  0  0  0  0  0  0  0  0  0  0  0
   -1.2306    2.3783   -0.0000 C   0  0  0  0  0  0  0  0  0  0  0  0
   -2.4375    0.0237   -0.0000 C   0  0  0  0  0  0  0  0  0  0  0  0
   -1.9760   -1.3962   -0.0000 C   0  0  0  0  0  0  0  0  0  0  0  0
   -2.5321    3.1356   -0.0000 N   0  0  0  0  0  0  0  0  0  0  0  0
    0.0473    3.1356   -0.0000 C   0  0  0  0  0  0  0  0  0  0  0  0
   -2.5321    4.6383   -0.0000 C   0  0  0  0  0  0  0  0  0  0  0  0
    0.0237    4.6501   -0.0000 C   0  0  0  0  0  0  0  0  0  0  0  0
   -3.8337    5.3955   -0.0000 S   0  0  0  0  0  0  0  0  0  0  0  0
   -1.2661    5.4074   -0.0000 N   0  0  0  0  0  0  0  0  0  0  0  0
   -5.1352    4.6619   -0.0000 C   0  0  0  0  0  0  0  0  0  0  0  0
   -6.4368    5.4192   -0.0000 C   0  0  0  0  0  0  0  0  0  0  0  0
   -6.4486    6.9219   -0.0000 O   0  0  0  0  0  0  0  0  0  0  0  0
   -7.7383    4.6856   -0.0000 N   0  0  0  0  0  0  0  0  0  0  0  0
   -9.0399    5.4429   -0.0000 C   0  0  0  0  0  0  0  0  0  0  0  0
  -10.3533    4.7093   -0.0000 C   0  0  0  0  0  0  0  0  0  0  0  0
   -9.0517    6.9574   -0.0000 C   0  0  0  0  0  0  0  0  0  0  0  0
  -11.6548    5.4665   -0.0000 C   0  0  0  0  0  0  0  0  0  0  0  0
  -10.3651    7.7028   -0.0000 C   0  0  0  0  0  0  0  0  0  0  0  0
  -11.6667    6.9692   -0.0000 C   0  0  0  0  0  0  0  0  0  0  0  0
  -12.9682    7.7265   -0.0000 C   0  0  0  0  0  0  0  0  0  0  0  0
  -12.9801    9.2292   -0.0000 C   0  0  0  0  0  0  0  0  0  0  0  0
  -14.2698    6.9929   -0.0000 C   0  0  0  0  0  0  0  0  0  0  0  0
  1  2  1  0  0  0  0
  1  3  1  0  0  0  0
  2  4  1  0  0  0  0
  2  5  2  0  0  0  0
  3  6  2  0  0  0  0
  4  7  2  0  0  0  0
  4  8  1  0  0  0  0
  7  9  1  0  0  0  0
  8 10  2  0  0  0  0
  9 11  1  0  0  0  0
  9 12  2  0  0  0  0
 11 13  1  0  0  0  0
 13 14  1  0  0  0  0
 14 15  2  0  0  0  0
 14 16  1  0  0  0  0
 16 17  1  0  0  0  0
 17 18  2  0  0  0  0
 17 19  1  0  0  0  0
 18 20  1  0  0  0  0
 19 21  2  0  0  0  0
 20 22  2  0  0  0  0
 22 23  1  0  0  0  0
 23 24  1  0  0  0  0
 23 25  1  0  0  0  0
  5  6  1  0  0  0  0
 10 12  1  0  0  0  0
 21 22  1  0  0  0  0
M  END
>  <MolRegNo>
349260

>  <m>
=

>  <Value>
2.4547e13

>  <Unit>
nM

>  <Type>
IC50

>  <Ligand Efficiency>


>  <Binding Efficiency>


>  <Surface Efficiency>


>  <Assay Index>
262926

>  <Assay Category>


>  <Assay Organism>
SARS coronavirus

>  <Target ID>
20012

>  <Target Name>
SARS coronavirus 3C-like proteinase

>  <Target Organism>
SARS coronavirus

>  <Target Description>
Target is a single protein chain

>  <Sequence Accession>
P0C6U8

>  <Reference>
J. Med. Chem. 49 (12), 3485-3495 (2006)

>  <Pubmed ID>
16759091

>  <DOI>
10.1021/jm050852f

>  <InChI-Key>
UUBHDKPSKIQBFE-UHFFFAOYSA-N

>  <Molecular Formula>
C19H19N3OS2

>  <Monoisotopic Mass>
369.096952

>  <Druglikeness>
2.9685

$$$$
Compound 553
Actelion Java MolfileCreator 1.0

 25 27  0  0  0  0  0  0  0  0999 V2000
    0.0000   -0.0000   -0.0000 S   0  0  0  0  0  0  0  0  0  0  0  0
   -1.2187    0.8756   -0.0000 C   0  0  0  0  0  0  0  0  0  0  0  0
   -0.4733   -1.4080   -0.0000 C   0  0  0  0  0  0  0  0  0  0  0  0
   -1.2306    2.3783   -0.0000 C   0  0  0  0  0  0  0  0  0  0  0  0
   -2.4375    0.0237   -0.0000 C   0  0  0  0  0  0  0  0  0  0  0  0
   -1.9760   -1.3962   -0.0000 C   0  0  0  0  0  0  0  0  0  0  0  0
   -2.5321    3.1356   -0.0000 N   0  0  0  0  0  0  0  0  0  0  0  0
    0.0473    3.1356   -0.0000 C   0  0  0  0  0  0  0  0  0  0  0  0
   -2.5321    4.6383   -0.0000 C   0  0  0  0  0  0  0  0  0  0  0  0
    0.0237    4.6501   -0.0000 C   0  0  0  0  0  0  0  0  0  0  0  0
   -3.8337    5.3955   -0.0000 S   0  0  0  0  0  0  0  0  0  0  0  0
   -1.2661    5.4074   -0.0000 N   0  0  0  0  0  0  0  0  0  0  0  0
   -5.1352    4.6619   -0.0000 C   0  0  0  0  0  0  0  0  0  0  0  0
   -6.4368    5.4192   -0.0000 C   0  0  0  0  0  0  0  0  0  0  0  0
   -6.4486    6.9219   -0.0000 O   0  0  0  0  0  0  0  0  0  0  0  0
   -7.7383    4.6856   -0.0000 N   0  0  0  0  0  0  0  0  0  0  0  0
   -9.0399    5.4429   -0.0000 C   0  0  0  0  0  0  0  0  0  0  0  0
  -10.3533    4.7093   -0.0000 C   0  0  0  0  0  0  0  0  0  0  0  0
   -9.0517    6.9574   -0.0000 C   0  0  0  0  0  0  0  0  0  0  0  0
  -11.6548    5.4665   -0.0000 C   0  0  0  0  0  0  0  0  0  0  0  0
  -10.3651    7.7028   -0.0000 C   0  0  0  0  0  0  0  0  0  0  0  0
  -11.6667    6.9692   -0.0000 C   0  0  0  0  0  0  0  0  0  0  0  0
  -12.9682    7.7265   -0.0000 C   0  0  0  0  0  0  0  0  0  0  0  0
  -12.9801    9.2292   -0.0000 C   0  0  0  0  0  0  0  0  0  0  0  0
  -14.2698    6.9929   -0.0000 C   0  0  0  0  0  0  0  0  0  0  0  0
  1  2  1  0  0  0  0
  1  3  1  0  0  0  0
  2  4  1  0  0  0  0
  2  5  2  0  0  0  0
  3  6  2  0  0  0  0
  4  7  2  0  0  0  0
  4  8  1  0  0  0  0
  7  9  1  0  0  0  0
  8 10  2  0  0  0  0
  9 11  1  0  0  0  0
  9 12  2  0  0  0  0
 11 13  1  0  0  0  0
 13 14  1  0  0  0  0
 14 15  2  0  0  0  0
 14 16  1  0  0  0  0
 16 17  1  0  0  0  0
 17 18  2  0  0  0  0
 17 19  1  0  0  0  0
 18 20  1  0  0  0  0
 19 21  2  0  0  0  0
 20 22  2  0  0  0  0
 22 23  1  0  0  0  0
 23 24  1  0  0  0  0
 23 25  1  0  0  0  0
  5  6  1  0  0  0  0
 10 12  1  0  0  0  0
 21 22  1  0  0  0  0
M  END
>  <MolRegNo>
349260

>  <m>
=

>  <Value>
40000

>  <Unit>
nM

>  <Type>
IC50

>  <Ligand Efficiency>
0.24

>  <Binding Efficiency>
11.90

>  <Surface Efficiency>
8.01

>  <Assay Index>
262926

>  <Assay Category>


>  <Assay Organism>
SARS coronavirus

>  <Target ID>
20012

>  <Target Name>
SARS coronavirus 3C-like proteinase

>  <Target Organism>
SARS coronavirus

>  <Target Description>
Target is a single protein chain

>  <Sequence Accession>
P0C6U8

>  <Reference>
J. Med. Chem. 49 (12), 3485-3495 (2006)

>  <Pubmed ID>
16759091

>  <DOI>
10.1021/jm050852f

>  <InChI-Key>
UUBHDKPSKIQBFE-UHFFFAOYSA-N

>  <Molecular Formula>
C19H19N3OS2

>  <Monoisotopic Mass>
369.096952

>  <Druglikeness>
2.9685

$$$$
Compound 554
Actelion Java MolfileCreator 1.0

 23 25  0  0  0  0  0  0  0  0999 V2000
    0.0000   -0.0000   -0.0000 O   0  0  0  0  0  0  0  0  0  0  0  0
   -1.3136   -0.7455   -0.0000 C   0  0  0  0  0  0  0  0  0  0  0  0
   -1.3254   -2.2366   -0.0000 N   0  0  0  0  0  0  0  0  0  0  0  0
   -2.6272    0.0118   -0.0000 C   0  0  0  0  0  0  0  0  0  0  0  0
   -0.0355   -2.9703   -0.0000 C   0  0  0  0  0  0  0  0  0  0  0  0
   -2.6390    1.5266   -0.0000 C   0  0  0  0  0  0  0  0  0  0  0  0
   -3.9407   -0.7337   -0.0000 C   0  0  0  0  0  0  0  0  0  0  0  0
   -0.0473   -4.4614   -0.0000 C   0  0  0  0  0  0  0  0  0  0  0  0
    1.2544   -2.2130   -0.0000 C   0  0  0  0  0  0  0  0  0  0  0  0
   -3.9526    2.2840   -0.0000 C   0  0  0  0  0  0  0  0  0  0  0  0
   -1.3491    2.2840   -0.0000 C   0  0  0  0  0  0  0  0  0  0  0  0
   -5.2543    0.0237   -0.0000 C   0  0  0  0  0  0  0  0  0  0  0  0
    1.2426   -5.2070   -0.0000 C   0  0  0  0  0  0  0  0  0  0  0  0
   -1.3609   -5.2070   -0.0000 C   0  0  0  0  0  0  0  0  0  0  0  0
   -5.2662    1.5503   -0.0000 C   0  0  0  0  0  0  0  0  0  0  0  0
   -6.5679   -0.7219   -0.0000 N   0  0  0  0  0  0  0  0  0  0  0  0
    1.2307   -6.6981   -0.0000 C   0  0  0  0  0  0  0  0  0  0  0  0
    2.5325   -4.4496   -0.0000 C   0  0  0  0  0  0  0  0  0  0  0  0
   -1.3728   -6.6981   -0.0000 C   0  0  0  0  0  0  0  0  0  0  0  0
   -0.0828   -7.4318   -0.0000 C   0  0  0  0  0  0  0  0  0  0  0  0
    2.5207   -7.4318   -0.0000 C   0  0  0  0  0  0  0  0  0  0  0  0
    3.8224   -5.1952   -0.0000 C   0  0  0  0  0  0  0  0  0  0  0  0
    3.8106   -6.6744   -0.0000 C   0  0  0  0  0  0  0  0  0  0  0  0
  1  2  2  0  0  0  0
  2  3  1  0  0  0  0
  2  4  1  0  0  0  0
  5  3  1  1  0  0  0
  4  6  2  0  0  0  0
  4  7  1  0  0  0  0
  5  8  1  0  0  0  0
  5  9  1  0  0  0  0
  6 10  1  0  0  0  0
  6 11  1  0  0  0  0
  7 12  2  0  0  0  0
  8 13  1  0  0  0  0
  8 14  2  0  0  0  0
 10 15  2  0  0  0  0
 12 16  1  0  0  0  0
 13 17  1  0  0  0  0
 13 18  2  0  0  0  0
 14 19  1  0  0  0  0
 17 20  1  0  0  0  0
 17 21  2  0  0  0  0
 18 22  1  0  0  0  0
 21 23  1  0  0  0  0
 12 15  1  0  0  0  0
 19 20  2  0  0  0  0
 22 23  2  0  0  0  0
M  END
>  <MolRegNo>
563857

>  <m>
=

>  <Value>
14500

>  <Unit>
nM

>  <Type>
EC50

>  <Ligand Efficiency>


>  <Binding Efficiency>


>  <Surface Efficiency>


>  <Assay Index>
752068

>  <Assay Category>


>  <Assay Organism>
SARS coronavirus

>  <Target ID>
100499

>  <Target Name>
SARS coronavirus

>  <Target Organism>
SARS coronavirus

>  <Target Description>
Target is a complete organism

>  <Sequence Accession>


>  <Reference>
J. Med. Chem. 56 (2), 534-546 (2013)

>  <Pubmed ID>
23231439

>  <DOI>
10.1021/jm301580n

>  <InChI-Key>
UVERBUNNCOKGNZ-AWEZNQCLSA-N

>  <Molecular Formula>
C20H20N2O

>  <Monoisotopic Mass>
304.157563

>  <Druglikeness>
2.4531

$$$$
Compound 555
Actelion Java MolfileCreator 1.0

 23 25  0  0  0  0  0  0  0  0999 V2000
    0.0000   -0.0000   -0.0000 O   0  0  0  0  0  0  0  0  0  0  0  0
   -1.3136   -0.7455   -0.0000 C   0  0  0  0  0  0  0  0  0  0  0  0
   -1.3254   -2.2366   -0.0000 N   0  0  0  0  0  0  0  0  0  0  0  0
   -2.6272    0.0118   -0.0000 C   0  0  0  0  0  0  0  0  0  0  0  0
   -0.0355   -2.9703   -0.0000 C   0  0  0  0  0  0  0  0  0  0  0  0
   -2.6390    1.5266   -0.0000 C   0  0  0  0  0  0  0  0  0  0  0  0
   -3.9407   -0.7337   -0.0000 C   0  0  0  0  0  0  0  0  0  0  0  0
   -0.0473   -4.4614   -0.0000 C   0  0  0  0  0  0  0  0  0  0  0  0
    1.2544   -2.2130   -0.0000 C   0  0  0  0  0  0  0  0  0  0  0  0
   -3.9526    2.2840   -0.0000 C   0  0  0  0  0  0  0  0  0  0  0  0
   -1.3491    2.2840   -0.0000 C   0  0  0  0  0  0  0  0  0  0  0  0
   -5.2543    0.0237   -0.0000 C   0  0  0  0  0  0  0  0  0  0  0  0
    1.2426   -5.2070   -0.0000 C   0  0  0  0  0  0  0  0  0  0  0  0
   -1.3609   -5.2070   -0.0000 C   0  0  0  0  0  0  0  0  0  0  0  0
   -5.2662    1.5503   -0.0000 C   0  0  0  0  0  0  0  0  0  0  0  0
   -6.5679   -0.7219   -0.0000 N   0  0  0  0  0  0  0  0  0  0  0  0
    1.2307   -6.6981   -0.0000 C   0  0  0  0  0  0  0  0  0  0  0  0
    2.5325   -4.4496   -0.0000 C   0  0  0  0  0  0  0  0  0  0  0  0
   -1.3728   -6.6981   -0.0000 C   0  0  0  0  0  0  0  0  0  0  0  0
   -0.0828   -7.4318   -0.0000 C   0  0  0  0  0  0  0  0  0  0  0  0
    2.5207   -7.4318   -0.0000 C   0  0  0  0  0  0  0  0  0  0  0  0
    3.8224   -5.1952   -0.0000 C   0  0  0  0  0  0  0  0  0  0  0  0
    3.8106   -6.6744   -0.0000 C   0  0  0  0  0  0  0  0  0  0  0  0
  1  2  2  0  0  0  0
  2  3  1  0  0  0  0
  2  4  1  0  0  0  0
  5  3  1  1  0  0  0
  4  6  2  0  0  0  0
  4  7  1  0  0  0  0
  5  8  1  0  0  0  0
  5  9  1  0  0  0  0
  6 10  1  0  0  0  0
  6 11  1  0  0  0  0
  7 12  2  0  0  0  0
  8 13  1  0  0  0  0
  8 14  2  0  0  0  0
 10 15  2  0  0  0  0
 12 16  1  0  0  0  0
 13 17  1  0  0  0  0
 13 18  2  0  0  0  0
 14 19  1  0  0  0  0
 17 20  1  0  0  0  0
 17 21  2  0  0  0  0
 18 22  1  0  0  0  0
 21 23  1  0  0  0  0
 12 15  1  0  0  0  0
 19 20  2  0  0  0  0
 22 23  2  0  0  0  0
M  END
>  <MolRegNo>
563857

>  <m>
=

>  <Value>
13100

>  <Unit>
nM

>  <Type>
EC50

>  <Ligand Efficiency>


>  <Binding Efficiency>


>  <Surface Efficiency>


>  <Assay Index>
425462

>  <Assay Category>


>  <Assay Organism>
SARS coronavirus

>  <Target ID>
100499

>  <Target Name>
SARS coronavirus

>  <Target Organism>
SARS coronavirus

>  <Target Description>
Target is a complete organism

>  <Sequence Accession>


>  <Reference>
J. Med. Chem. 52 (16), 5228-5240 (2009)

>  <Pubmed ID>
19645480

>  <DOI>
10.1021/jm900611t

>  <InChI-Key>
UVERBUNNCOKGNZ-AWEZNQCLSA-N

>  <Molecular Formula>
C20H20N2O

>  <Monoisotopic Mass>
304.157563

>  <Druglikeness>
2.4531

$$$$
Compound 556
Actelion Java MolfileCreator 1.0

 17 18  0  0  1  0  0  0  0  0999 V2000
    0.0000   -0.0000   -0.0000 O   0  0  0  0  0  0  0  0  0  0  0  0
   -1.1483   -0.9491   -0.0000 C   0  0  0  0  0  0  0  0  0  0  0  0
   -0.8905   -2.4137   -0.0000 N   0  0  0  0  0  0  0  0  0  0  0  0
   -2.5660   -0.4335   -0.0000 C   0  0  0  0  0  0  0  0  0  0  0  0
   -2.9995    1.0077   -0.0000 N   0  0  0  0  0  0  0  0  0  0  0  0
   -3.8197   -1.2654   -0.0000 C   0  0  0  0  0  0  0  0  0  0  0  0
   -4.4993    1.0662   -0.0000 C   0  0  0  0  0  0  0  0  0  0  0  0
   -5.0148   -0.3398   -0.0000 N   0  0  0  0  0  0  0  0  0  0  0  0
   -6.4560   -0.7382   -0.0000 C   0  0  0  0  0  0  0  0  0  0  0  0
   -7.6511    0.1875   -0.0000 C   0  0  0  0  0  0  0  0  0  0  0  0
   -6.9833   -2.1325   -0.0000 C   0  0  0  0  0  0  0  0  0  0  0  0
   -8.9049   -0.6444   -0.0000 C   0  0  0  0  0  0  0  0  0  0  0  0
   -6.1514   -3.3628   -0.0000 O   0  0  0  0  0  0  0  0  0  0  0  0
   -8.4831   -2.0739   -0.0000 C   0  0  0  0  0  0  0  0  0  0  0  0
  -10.3226   -0.1172   -0.0000 C   0  0  0  0  0  0  0  0  0  0  0  0
   -9.4204   -3.2339   -0.0000 O   0  0  0  0  0  0  0  0  0  0  0  0
  -10.5921    1.3709   -0.0000 O   0  0  0  0  0  0  0  0  0  0  0  0
  1  2  2  0  0  0  0
  2  3  1  0  0  0  0
  2  4  1  0  0  0  0
  4  5  1  0  0  0  0
  4  6  2  0  0  0  0
  5  7  2  0  0  0  0
  6  8  1  0  0  0  0
  9  8  1  1  0  0  0
  9 10  1  0  0  0  0
  9 11  1  0  0  0  0
 10 12  2  0  0  0  0
 11 13  1  6  0  0  0
 11 14  1  0  0  0  0
 12 15  1  0  0  0  0
 14 16  1  6  0  0  0
 15 17  1  0  0  0  0
  7  8  1  0  0  0  0
 12 14  1  0  0  0  0
M  END
>  <MolRegNo>
337909

>  <m>
>

>  <Value>
1.0e5

>  <Unit>
nM

>  <Type>
EC50

>  <Ligand Efficiency>


>  <Binding Efficiency>


>  <Surface Efficiency>


>  <Assay Index>
256629

>  <Assay Category>


>  <Assay Organism>
SARS coronavirus

>  <Target ID>
100499

>  <Target Name>
SARS coronavirus

>  <Target Organism>
SARS coronavirus

>  <Target Description>
Target is a complete organism

>  <Sequence Accession>


>  <Reference>
J. Med. Chem. 49 (3), 1140-1148 (2006)

>  <Pubmed ID>
16451078

>  <DOI>
10.1021/jm0509750

>  <InChI-Key>
VALRMFJWTJYQMZ-VGMNWLOBSA-N

>  <Molecular Formula>
C10H13N3O4

>  <Monoisotopic Mass>
239.090607

>  <Druglikeness>
3.1146

$$$$
Compound 557
Actelion Java MolfileCreator 1.0

 17 18  0  0  1  0  0  0  0  0999 V2000
    0.0000   -0.0000   -0.0000 O   0  0  0  0  0  0  0  0  0  0  0  0
   -1.1483   -0.9491   -0.0000 C   0  0  0  0  0  0  0  0  0  0  0  0
   -0.8905   -2.4137   -0.0000 N   0  0  0  0  0  0  0  0  0  0  0  0
   -2.5660   -0.4335   -0.0000 C   0  0  0  0  0  0  0  0  0  0  0  0
   -2.9995    1.0077   -0.0000 N   0  0  0  0  0  0  0  0  0  0  0  0
   -3.8197   -1.2654   -0.0000 C   0  0  0  0  0  0  0  0  0  0  0  0
   -4.4993    1.0662   -0.0000 C   0  0  0  0  0  0  0  0  0  0  0  0
   -5.0148   -0.3398   -0.0000 N   0  0  0  0  0  0  0  0  0  0  0  0
   -6.4560   -0.7382   -0.0000 C   0  0  0  0  0  0  0  0  0  0  0  0
   -7.6511    0.1875   -0.0000 C   0  0  0  0  0  0  0  0  0  0  0  0
   -6.9833   -2.1325   -0.0000 C   0  0  0  0  0  0  0  0  0  0  0  0
   -8.9049   -0.6444   -0.0000 C   0  0  0  0  0  0  0  0  0  0  0  0
   -6.1514   -3.3628   -0.0000 O   0  0  0  0  0  0  0  0  0  0  0  0
   -8.4831   -2.0739   -0.0000 C   0  0  0  0  0  0  0  0  0  0  0  0
  -10.3226   -0.1172   -0.0000 C   0  0  0  0  0  0  0  0  0  0  0  0
   -9.4204   -3.2339   -0.0000 O   0  0  0  0  0  0  0  0  0  0  0  0
  -10.5921    1.3709   -0.0000 O   0  0  0  0  0  0  0  0  0  0  0  0
  1  2  2  0  0  0  0
  2  3  1  0  0  0  0
  2  4  1  0  0  0  0
  4  5  1  0  0  0  0
  4  6  2  0  0  0  0
  5  7  2  0  0  0  0
  6  8  1  0  0  0  0
  9  8  1  1  0  0  0
  9 10  1  0  0  0  0
  9 11  1  0  0  0  0
 10 12  2  0  0  0  0
 11 13  1  6  0  0  0
 11 14  1  0  0  0  0
 12 15  1  0  0  0  0
 14 16  1  6  0  0  0
 15 17  1  0  0  0  0
  7  8  1  0  0  0  0
 12 14  1  0  0  0  0
M  END
>  <MolRegNo>
337909

>  <m>
>

>  <Value>
1.0e5

>  <Unit>
nM

>  <Type>
IC50

>  <Ligand Efficiency>


>  <Binding Efficiency>


>  <Surface Efficiency>


>  <Assay Index>
256635

>  <Assay Category>


>  <Assay Organism>
SARS coronavirus

>  <Target ID>
100499

>  <Target Name>
SARS coronavirus

>  <Target Organism>
SARS coronavirus

>  <Target Description>
Target is a complete organism

>  <Sequence Accession>


>  <Reference>
J. Med. Chem. 49 (3), 1140-1148 (2006)

>  <Pubmed ID>
16451078

>  <DOI>
10.1021/jm0509750

>  <InChI-Key>
VALRMFJWTJYQMZ-VGMNWLOBSA-N

>  <Molecular Formula>
C10H13N3O4

>  <Monoisotopic Mass>
239.090607

>  <Druglikeness>
3.1146

$$$$
Compound 558
Actelion Java MolfileCreator 1.0

 17 18  0  0  1  0  0  0  0  0999 V2000
    0.0000   -0.0000   -0.0000 O   0  0  0  0  0  0  0  0  0  0  0  0
   -1.1483   -0.9491   -0.0000 C   0  0  0  0  0  0  0  0  0  0  0  0
   -0.8905   -2.4137   -0.0000 N   0  0  0  0  0  0  0  0  0  0  0  0
   -2.5660   -0.4335   -0.0000 C   0  0  0  0  0  0  0  0  0  0  0  0
   -2.9995    1.0077   -0.0000 N   0  0  0  0  0  0  0  0  0  0  0  0
   -3.8197   -1.2654   -0.0000 C   0  0  0  0  0  0  0  0  0  0  0  0
   -4.4993    1.0662   -0.0000 C   0  0  0  0  0  0  0  0  0  0  0  0
   -5.0148   -0.3398   -0.0000 N   0  0  0  0  0  0  0  0  0  0  0  0
   -6.4560   -0.7382   -0.0000 C   0  0  0  0  0  0  0  0  0  0  0  0
   -7.6511    0.1875   -0.0000 C   0  0  0  0  0  0  0  0  0  0  0  0
   -6.9833   -2.1325   -0.0000 C   0  0  0  0  0  0  0  0  0  0  0  0
   -8.9049   -0.6444   -0.0000 C   0  0  0  0  0  0  0  0  0  0  0  0
   -6.1514   -3.3628   -0.0000 O   0  0  0  0  0  0  0  0  0  0  0  0
   -8.4831   -2.0739   -0.0000 C   0  0  0  0  0  0  0  0  0  0  0  0
  -10.3226   -0.1172   -0.0000 C   0  0  0  0  0  0  0  0  0  0  0  0
   -9.4204   -3.2339   -0.0000 O   0  0  0  0  0  0  0  0  0  0  0  0
  -10.5921    1.3709   -0.0000 O   0  0  0  0  0  0  0  0  0  0  0  0
  1  2  2  0  0  0  0
  2  3  1  0  0  0  0
  2  4  1  0  0  0  0
  4  5  1  0  0  0  0
  4  6  2  0  0  0  0
  5  7  2  0  0  0  0
  6  8  1  0  0  0  0
  9  8  1  1  0  0  0
  9 10  1  0  0  0  0
  9 11  1  0  0  0  0
 10 12  2  0  0  0  0
 11 13  1  6  0  0  0
 11 14  1  0  0  0  0
 12 15  1  0  0  0  0
 14 16  1  6  0  0  0
 15 17  1  0  0  0  0
  7  8  1  0  0  0  0
 12 14  1  0  0  0  0
M  END
>  <MolRegNo>
337909

>  <m>
=

>  <Value>
0

>  <Unit>
-

>  <Type>
Selectivity index

>  <Ligand Efficiency>


>  <Binding Efficiency>


>  <Surface Efficiency>


>  <Assay Index>
256641

>  <Assay Category>


>  <Assay Organism>
SARS coronavirus

>  <Target ID>
100499

>  <Target Name>
SARS coronavirus

>  <Target Organism>
SARS coronavirus

>  <Target Description>
Target is a complete organism

>  <Sequence Accession>


>  <Reference>
J. Med. Chem. 49 (3), 1140-1148 (2006)

>  <Pubmed ID>
16451078

>  <DOI>
10.1021/jm0509750

>  <InChI-Key>
VALRMFJWTJYQMZ-VGMNWLOBSA-N

>  <Molecular Formula>
C10H13N3O4

>  <Monoisotopic Mass>
239.090607

>  <Druglikeness>
3.1146

$$$$
Compound 559
Actelion Java MolfileCreator 1.0

 13 14  0  0  0  0  0  0  0  0999 V2000
    0.0000   -0.0000   -0.0000 S   0  0  0  0  0  0  0  0  0  0  0  0
    1.2059    0.8867   -0.0000 C   0  0  0  0  0  0  0  0  0  0  0  0
   -1.2295    0.8985   -0.0000 C   0  0  0  0  0  0  0  0  0  0  0  0
    0.7330    2.3409   -0.0000 N   0  0  0  0  0  0  0  0  0  0  0  0
    2.6246    0.4256   -0.0000 C   0  0  0  0  0  0  0  0  0  0  0  0
   -0.7803    2.3409   -0.0000 C   0  0  0  0  0  0  0  0  0  0  0  0
    2.9202   -1.0286   -0.0000 O   0  0  0  0  0  0  0  0  0  0  0  0
    3.7359    1.4423   -0.0000 C   0  0  0  0  0  0  0  0  0  0  0  0
    5.1546    0.9813   -0.0000 C   0  0  0  0  0  0  0  0  0  0  0  0
    6.3605    1.8798   -0.0000 S   0  0  0  0  0  0  0  0  0  0  0  0
    5.6039   -0.4256   -0.0000 N   0  0  0  0  0  0  0  0  0  0  0  0
    7.5546    1.0049   -0.0000 C   0  0  0  0  0  0  0  0  0  0  0  0
    7.0935   -0.4256   -0.0000 C   0  0  0  0  0  0  0  0  0  0  0  0
  1  2  1  0  0  0  0
  1  3  1  0  0  0  0
  2  4  2  0  0  0  0
  2  5  1  0  0  0  0
  3  6  2  0  0  0  0
  5  7  2  0  0  0  0
  5  8  1  0  0  0  0
  8  9  1  0  0  0  0
  9 10  1  0  0  0  0
  9 11  2  0  0  0  0
 10 12  1  0  0  0  0
 11 13  1  0  0  0  0
  4  6  1  0  0  0  0
 12 13  2  0  0  0  0
M  END
>  <MolRegNo>
356374

>  <m>
=

>  <Value>
40000

>  <Unit>
nM

>  <Type>
IC50

>  <Ligand Efficiency>
0.46

>  <Binding Efficiency>
20.91

>  <Surface Efficiency>
10.26

>  <Assay Index>
266027

>  <Assay Category>


>  <Assay Organism>
SARS coronavirus

>  <Target ID>
20012

>  <Target Name>
SARS coronavirus 3C-like proteinase

>  <Target Organism>
SARS coronavirus

>  <Target Description>
Target is a single protein chain

>  <Sequence Accession>
P0C6U8

>  <Reference>
J. Med. Chem. 49 (17), 5154-5161 (2006)

>  <Pubmed ID>
16913704

>  <DOI>
10.1021/jm060207o

>  <InChI-Key>
VBVUGCQFVIKNDM-UHFFFAOYSA-N

>  <Molecular Formula>
C8H6N2OS2

>  <Monoisotopic Mass>
209.992153

>  <Druglikeness>
2.4525

$$$$
Compound 560
Actelion Java MolfileCreator 1.0

 22 25  0  0  0  0  0  0  0  0999 V2000
    0.0000   -0.0000   -0.0000 Cl  0  0  0  0  0  0  0  0  0  0  0  0
    0.0000   -1.4985   -0.0000 C   0  0  0  0  0  0  0  0  0  0  0  0
    1.2964   -2.2359   -0.0000 C   0  0  0  0  0  0  0  0  0  0  0  0
   -1.3201   -2.2597   -0.0000 C   0  0  0  0  0  0  0  0  0  0  0  0
    2.7235   -1.7602   -0.0000 C   0  0  0  0  0  0  0  0  0  0  0  0
    1.2845   -3.7345   -0.0000 C   0  0  0  0  0  0  0  0  0  0  0  0
   -1.3320   -3.7583   -0.0000 C   0  0  0  0  0  0  0  0  0  0  0  0
    3.1636   -0.3092   -0.0000 O   0  0  0  0  0  0  0  0  0  0  0  0
    3.6036   -2.9733   -0.0000 C   0  0  0  0  0  0  0  0  0  0  0  0
    2.7116   -4.1983   -0.0000 N   0  0  0  0  0  0  0  0  0  0  0  0
   -0.0357   -4.4956   -0.0000 C   0  0  0  0  0  0  0  0  0  0  0  0
    5.1022   -2.9614   -0.0000 O   0  0  0  0  0  0  0  0  0  0  0  0
    3.1755   -5.6255   -0.0000 C   0  0  0  0  0  0  0  0  0  0  0  0
    4.6383   -5.9228   -0.0000 C   0  0  0  0  0  0  0  0  0  0  0  0
    5.7444   -4.9000   -0.0000 S   0  0  0  0  0  0  0  0  0  0  0  0
    5.2449   -7.2786   -0.0000 C   0  0  0  0  0  0  0  0  0  0  0  0
    7.0408   -5.6493   -0.0000 C   0  0  0  0  0  0  0  0  0  0  0  0
    6.7197   -7.1121   -0.0000 C   0  0  0  0  0  0  0  0  0  0  0  0
    8.4442   -5.1616   -0.0000 C   0  0  0  0  0  0  0  0  0  0  0  0
    7.8257   -8.1112   -0.0000 C   0  0  0  0  0  0  0  0  0  0  0  0
    9.5502   -6.1607   -0.0000 C   0  0  0  0  0  0  0  0  0  0  0  0
    9.2529   -7.6354   -0.0000 C   0  0  0  0  0  0  0  0  0  0  0  0
  1  2  1  0  0  0  0
  2  3  2  0  0  0  0
  2  4  1  0  0  0  0
  3  5  1  0  0  0  0
  3  6  1  0  0  0  0
  4  7  2  0  0  0  0
  5  8  2  0  0  0  0
  5  9  1  0  0  0  0
  6 10  1  0  0  0  0
  6 11  2  0  0  0  0
  9 12  2  0  0  0  0
 10 13  1  0  0  0  0
 13 14  1  0  0  0  0
 14 15  1  0  0  0  0
 14 16  2  0  0  0  0
 15 17  1  0  0  0  0
 16 18  1  0  0  0  0
 17 19  1  0  0  0  0
 18 20  1  0  0  0  0
 19 21  2  0  0  0  0
 20 22  2  0  0  0  0
  7 11  1  0  0  0  0
  9 10  1  0  0  0  0
 17 18  2  0  0  0  0
 21 22  1  0  0  0  0
M  END
>  <MolRegNo>
317002

>  <m>
=

>  <Value>
11200

>  <Unit>
nM

>  <Type>
IC50

>  <Ligand Efficiency>
0.31

>  <Binding Efficiency>
15.10

>  <Surface Efficiency>
13.24

>  <Assay Index>
238671

>  <Assay Category>


>  <Assay Organism>
SARS coronavirus

>  <Target ID>
20012

>  <Target Name>
SARS coronavirus 3C-like proteinase

>  <Target Organism>
SARS coronavirus

>  <Target Description>
Target is a single protein chain

>  <Sequence Accession>
P0C6U8

>  <Reference>
Bioorg. Med. Chem. Lett. 15 (12), 3058-3062 (2005)

>  <Pubmed ID>
15896959

>  <DOI>
10.1016/j.bmcl.2005.04.027

>  <InChI-Key>
VCHRPHJPXICPGC-UHFFFAOYSA-N

>  <Molecular Formula>
C17H10NO2ClS

>  <Monoisotopic Mass>
327.012076

>  <Druglikeness>
1.2951

$$$$
Compound 561
Actelion Java MolfileCreator 1.0

 28 31  0  0  0  0  0  0  0  0999 V2000
    0.0000   -0.0000   -0.0000 O   0  0  0  0  0  0  0  0  0  0  0  0
   -0.0119   -1.4879   -0.0000 C   0  0  0  0  0  0  0  0  0  0  0  0
    1.2737   -2.2260   -0.0000 N   0  0  0  0  0  0  0  0  0  0  0  0
   -1.3213   -2.2260   -0.0000 C   0  0  0  0  0  0  0  0  0  0  0  0
    2.5593   -1.4641   -0.0000 C   0  0  0  0  0  0  0  0  0  0  0  0
   -1.3332   -3.7139   -0.0000 C   0  0  0  0  0  0  0  0  0  0  0  0
   -2.6426   -1.4641   -0.0000 C   0  0  0  0  0  0  0  0  0  0  0  0
    3.8449   -2.2022   -0.0000 C   0  0  0  0  0  0  0  0  0  0  0  0
   -2.6426   -4.4519   -0.0000 C   0  0  0  0  0  0  0  0  0  0  0  0
   -3.9639   -2.2022   -0.0000 C   0  0  0  0  0  0  0  0  0  0  0  0
    3.8330   -3.6901   -0.0000 C   0  0  0  0  0  0  0  0  0  0  0  0
    5.1304   -1.4403   -0.0000 C   0  0  0  0  0  0  0  0  0  0  0  0
   -3.9639   -3.6901   -0.0000 N   0  0  0  0  0  0  0  0  0  0  0  0
    5.1185   -4.4281   -0.0000 C   0  0  0  0  0  0  0  0  0  0  0  0
    6.4160   -2.1665   -0.0000 C   0  0  0  0  0  0  0  0  0  0  0  0
   -5.2733   -4.4400   -0.0000 C   0  0  0  0  0  0  0  0  0  0  0  0
    6.4041   -3.6544   -0.0000 C   0  0  0  0  0  0  0  0  0  0  0  0
   -5.2733   -5.9280   -0.0000 C   0  0  0  0  0  0  0  0  0  0  0  0
   -6.5946   -3.6782   -0.0000 C   0  0  0  0  0  0  0  0  0  0  0  0
   -6.5827   -6.6660   -0.0000 C   0  0  0  0  0  0  0  0  0  0  0  0
   -3.9758   -6.6541   -0.0000 C   0  0  0  0  0  0  0  0  0  0  0  0
   -6.5946   -8.1659   -0.0000 C   0  0  0  0  0  0  0  0  0  0  0  0
   -7.8921   -5.9042   -0.0000 C   0  0  0  0  0  0  0  0  0  0  0  0
   -3.9758   -8.1540   -0.0000 C   0  0  0  0  0  0  0  0  0  0  0  0
   -5.3090   -8.9039   -0.0000 C   0  0  0  0  0  0  0  0  0  0  0  0
   -7.9040   -8.9158   -0.0000 C   0  0  0  0  0  0  0  0  0  0  0  0
   -9.2015   -6.6422   -0.0000 C   0  0  0  0  0  0  0  0  0  0  0  0
   -9.2134   -8.1540   -0.0000 C   0  0  0  0  0  0  0  0  0  0  0  0
  1  2  2  0  0  0  0
  2  3  1  0  0  0  0
  2  4  1  0  0  0  0
  3  5  1  0  0  0  0
  4  6  1  0  0  0  0
  4  7  1  0  0  0  0
  5  8  1  0  0  0  0
  6  9  1  0  0  0  0
  7 10  1  0  0  0  0
  8 11  2  0  0  0  0
  8 12  1  0  0  0  0
  9 13  1  0  0  0  0
 11 14  1  0  0  0  0
 12 15  2  0  0  0  0
 16 13  1  6  0  0  0
 14 17  2  0  0  0  0
 16 18  1  0  0  0  0
 16 19  1  0  0  0  0
 18 20  1  0  0  0  0
 18 21  2  0  0  0  0
 20 22  1  0  0  0  0
 20 23  2  0  0  0  0
 21 24  1  0  0  0  0
 22 25  1  0  0  0  0
 22 26  2  0  0  0  0
 23 27  1  0  0  0  0
 26 28  1  0  0  0  0
 10 13  1  0  0  0  0
 15 17  1  0  0  0  0
 24 25  2  0  0  0  0
 27 28  2  0  0  0  0
M  END
>  <MolRegNo>
1732307

>  <m>
>

>  <Value>
50000

>  <Unit>
nM

>  <Type>
EC50

>  <Ligand Efficiency>


>  <Binding Efficiency>


>  <Surface Efficiency>


>  <Assay Index>
843084

>  <Assay Category>


>  <Assay Organism>
SARS coronavirus

>  <Target ID>
100499

>  <Target Name>
SARS coronavirus

>  <Target Organism>
SARS coronavirus

>  <Target Description>
Target is a complete organism

>  <Sequence Accession>


>  <Reference>
J. Med. Chem. 57 (6), 2393-2412 (2014)

>  <Pubmed ID>
24568342

>  <DOI>
10.1021/jm401712t

>  <InChI-Key>
VEGNLUSKEVURKQ-IBGZPJMESA-N

>  <Molecular Formula>
C25H28N2O

>  <Monoisotopic Mass>
372.220163

>  <Druglikeness>
6.7654

$$$$
Compound 562
Actelion Java MolfileCreator 1.0

 29 31  0  0  1  0  0  0  0  0999 V2000
    0.0000   -0.0000   -0.0000 O   0  0  0  0  0  0  0  0  0  0  0  0
   -0.0119    1.5053   -0.0000 C   0  0  0  0  0  0  0  0  0  0  0  0
    1.2682    2.2638   -0.0000 O   0  0  0  0  0  0  0  0  0  0  0  0
   -1.3156    2.2638   -0.0000 C   0  0  0  0  0  0  0  0  0  0  0  0
    2.5483    1.5290   -0.0000 C   0  0  0  0  0  0  0  0  0  0  0  0
   -2.0742    3.5794   -0.0000 N   0  0  0  0  0  0  0  0  0  0  0  0
   -2.8209    2.2757   -0.0000 C   0  0  0  0  0  0  0  0  0  0  0  0
   -2.0860    5.0847   -0.0000 C   0  0  0  0  0  0  0  0  0  0  0  0
   -3.3898    5.8432   -0.0000 C   0  0  0  0  0  0  0  0  0  0  0  0
   -0.8060    5.8432   -0.0000 C   0  0  0  0  0  0  0  0  0  0  0  0
   -4.7054    5.1084   -0.0000 O   0  0  0  0  0  0  0  0  0  0  0  0
   -3.4016    7.3485   -0.0000 O   0  0  0  0  0  0  0  0  0  0  0  0
    0.4741    5.1084   -0.0000 C   0  0  0  0  0  0  0  0  0  0  0  0
   -2.1216    8.1070   -0.0000 C   0  0  0  0  0  0  0  0  0  0  0  0
    0.4622    3.6268   -0.0000 O   0  0  0  0  0  0  0  0  0  0  0  0
    1.7660    5.8669   -0.0000 O   0  0  0  0  0  0  0  0  0  0  0  0
   -2.1453    9.6241   -0.0000 C   0  0  0  0  0  0  0  0  0  0  0  0
    3.0461    5.1321   -0.0000 C   0  0  0  0  0  0  0  0  0  0  0  0
   -0.8534   10.3945   -0.0000 C   0  0  0  0  0  0  0  0  0  0  0  0
   -3.4609   10.3708   -0.0000 C   0  0  0  0  0  0  0  0  0  0  0  0
    4.3380    5.8906   -0.0000 C   0  0  0  0  0  0  0  0  0  0  0  0
   -0.8771   11.9116   -0.0000 C   0  0  0  0  0  0  0  0  0  0  0  0
   -3.4964   11.8879   -0.0000 C   0  0  0  0  0  0  0  0  0  0  0  0
    5.6180    5.1439   -0.0000 C   0  0  0  0  0  0  0  0  0  0  0  0
    4.3261    7.3959   -0.0000 C   0  0  0  0  0  0  0  0  0  0  0  0
   -2.2045   12.6702   -0.0000 C   0  0  0  0  0  0  0  0  0  0  0  0
    6.8981    5.9025   -0.0000 C   0  0  0  0  0  0  0  0  0  0  0  0
    5.6062    8.1544   -0.0000 C   0  0  0  0  0  0  0  0  0  0  0  0
    6.8862    7.4196   -0.0000 C   0  0  0  0  0  0  0  0  0  0  0  0
  1  2  2  0  0  0  0
  2  3  1  0  0  0  0
  2  4  1  0  0  0  0
  3  5  1  0  0  0  0
  4  6  1  0  0  0  0
  4  7  1  0  0  0  0
  8  6  1  6  0  0  0
  8  9  1  0  0  0  0
  8 10  1  0  0  0  0
  9 11  2  0  0  0  0
  9 12  1  0  0  0  0
 10 13  1  0  0  0  0
 12 14  1  0  0  0  0
 13 15  2  0  0  0  0
 13 16  1  0  0  0  0
 14 17  1  0  0  0  0
 16 18  1  0  0  0  0
 17 19  2  0  0  0  0
 17 20  1  0  0  0  0
 18 21  1  0  0  0  0
 19 22  1  0  0  0  0
 20 23  2  0  0  0  0
 21 24  2  0  0  0  0
 21 25  1  0  0  0  0
 22 26  2  0  0  0  0
 24 27  1  0  0  0  0
 25 28  2  0  0  0  0
 27 29  2  0  0  0  0
  6  7  1  0  0  0  0
 23 26  1  0  0  0  0
 28 29  1  0  0  0  0
M  END
>  <MolRegNo>
333629

>  <m>
=

>  <Value>
28

>  <Unit>
%

>  <Type>
Inhibition

>  <Ligand Efficiency>


>  <Binding Efficiency>


>  <Surface Efficiency>


>  <Assay Index>
254531

>  <Assay Category>


>  <Assay Organism>
SARS coronavirus

>  <Target ID>
20012

>  <Target Name>
SARS coronavirus 3C-like proteinase

>  <Target Organism>
SARS coronavirus

>  <Target Description>
Target is a single protein chain

>  <Sequence Accession>
P0C6U8

>  <Reference>
Bioorg. Med. Chem. Lett. 15 (24), 5365-5369 (2005)

>  <Pubmed ID>
16216498

>  <DOI>
10.1016/j.bmcl.2005.09.012

>  <InChI-Key>
VEQLIWRZBIPKMI-HGCBZUSOSA-N

>  <Molecular Formula>
C22H23NO6

>  <Monoisotopic Mass>
397.152539

>  <Druglikeness>
-0.36077

$$$$
Compound 563
Actelion Java MolfileCreator 1.0

 26 29  0  0  0  0  0  0  0  0999 V2000
    0.0000   -0.0000   -0.0000 O   0  0  0  0  0  0  0  0  0  0  0  0
   -1.0498    1.0498   -0.0000 C   0  0  0  0  0  0  0  0  0  0  0  0
   -0.7431    2.5124   -0.0000 C   0  0  0  0  0  0  0  0  0  0  0  0
   -2.5478    0.9082   -0.0000 C   0  0  0  0  0  0  0  0  0  0  0  0
   -2.0406    3.2790   -0.0000 C   0  0  0  0  0  0  0  0  0  0  0  0
    0.5426    3.2673   -0.0000 C   0  0  0  0  0  0  0  0  0  0  0  0
   -3.1611    2.2883   -0.0000 C   0  0  0  0  0  0  0  0  0  0  0  0
   -3.4324   -0.2949   -0.0000 C   0  0  0  0  0  0  0  0  0  0  0  0
   -2.0524    4.7770   -0.0000 C   0  0  0  0  0  0  0  0  0  0  0  0
    0.5308    4.7770   -0.0000 C   0  0  0  0  0  0  0  0  0  0  0  0
   -4.6591    2.4534   -0.0000 C   0  0  0  0  0  0  0  0  0  0  0  0
   -4.9422   -0.1180   -0.0000 C   0  0  0  0  0  0  0  0  0  0  0  0
   -3.3498    5.5319   -0.0000 C   0  0  0  0  0  0  0  0  0  0  0  0
   -0.7903    5.5319   -0.0000 C   0  0  0  0  0  0  0  0  0  0  0  0
   -5.5555    1.2621   -0.0000 C   0  0  0  0  0  0  0  0  0  0  0  0
   -3.3734    7.0417   -0.0000 O   0  0  0  0  0  0  0  0  0  0  0  0
   -4.6473    4.8006   -0.0000 N   0  0  0  0  0  0  0  0  0  0  0  0
   -5.9448    5.5555   -0.0000 C   0  0  0  0  0  0  0  0  0  0  0  0
   -5.9565    7.0535   -0.0000 C   0  0  0  0  0  0  0  0  0  0  0  0
   -7.2304    4.8124   -0.0000 C   0  0  0  0  0  0  0  0  0  0  0  0
   -7.2540    7.8084   -0.0000 C   0  0  0  0  0  0  0  0  0  0  0  0
   -8.5279    5.5555   -0.0000 C   0  0  0  0  0  0  0  0  0  0  0  0
   -8.5515    7.0771   -0.0000 C   0  0  0  0  0  0  0  0  0  0  0  0
   -9.8489    7.8320   -0.0000 C   0  0  0  0  0  0  0  0  0  0  0  0
  -11.1582    7.1007   -0.0000 O   0  0  0  0  0  0  0  0  0  0  0  0
   -9.8725    9.3300   -0.0000 O   0  0  0  0  0  0  0  0  0  0  0  0
  1  2  2  0  0  0  0
  2  3  1  0  0  0  0
  2  4  1  0  0  0  0
  3  5  2  0  0  0  0
  3  6  1  0  0  0  0
  4  7  2  0  0  0  0
  4  8  1  0  0  0  0
  5  9  1  0  0  0  0
  6 10  2  0  0  0  0
  7 11  1  0  0  0  0
  8 12  1  0  0  0  0
  9 13  1  0  0  0  0
  9 14  2  0  0  0  0
 11 15  1  0  0  0  0
 13 16  2  0  0  0  0
 13 17  1  0  0  0  0
 17 18  1  0  0  0  0
 18 19  2  0  0  0  0
 18 20  1  0  0  0  0
 19 21  1  0  0  0  0
 20 22  2  0  0  0  0
 21 23  2  0  0  0  0
 23 24  1  0  0  0  0
 24 25  2  0  0  0  0
 24 26  1  0  0  0  0
  5  7  1  0  0  0  0
 10 14  1  0  0  0  0
 12 15  1  0  0  0  0
 22 23  1  0  0  0  0
M  END
>  <MolRegNo>
339147

>  <m>
=

>  <Value>
25

>  <Unit>
%

>  <Type>
Inhibition

>  <Ligand Efficiency>


>  <Binding Efficiency>


>  <Surface Efficiency>


>  <Assay Index>
257471

>  <Assay Category>


>  <Assay Organism>
SARS coronavirus

>  <Target ID>
100499

>  <Target Name>
SARS coronavirus

>  <Target Organism>
SARS coronavirus

>  <Target Description>
Target is a complete organism

>  <Sequence Accession>


>  <Reference>
Bioorg. Med. Chem. Lett. 16 (4), 830-833 (2006)

>  <Pubmed ID>
16325400

>  <DOI>
10.1016/j.bmcl.2005.11.018

>  <InChI-Key>
VGALQRWFZYLFOD-UHFFFAOYSA-N

>  <Molecular Formula>
C21H17NO4

>  <Monoisotopic Mass>
347.115759

>  <Druglikeness>
-3.0376

$$$$
Compound 564
Actelion Java MolfileCreator 1.0

 25 27  0  0  0  0  0  0  0  0999 V2000
    0.0000   -0.0000   -0.0000 S   0  0  0  0  0  0  0  0  0  0  0  0
    0.8723   -1.2024   -0.0000 C   0  0  0  0  0  0  0  0  0  0  0  0
   -1.4971   -0.1415   -0.0000 C   0  0  0  0  0  0  0  0  0  0  0  0
    0.4008   -2.6169   -0.0000 N   0  0  0  0  0  0  0  0  0  0  0  0
    2.3576   -1.1906   -0.0000 N   0  0  0  0  0  0  0  0  0  0  0  0
   -2.1218   -1.4971   -0.0000 O   0  0  0  0  0  0  0  0  0  0  0  0
   -2.3930    1.0845   -0.0000 C   0  0  0  0  0  0  0  0  0  0  0  0
    1.6032   -3.4892   -0.0000 N   0  0  0  0  0  0  0  0  0  0  0  0
    2.8055   -2.6051   -0.0000 C   0  0  0  0  0  0  0  0  0  0  0  0
   -1.9450    2.5226   -0.0000 O   0  0  0  0  0  0  0  0  0  0  0  0
   -3.9018    1.0963   -0.0000 C   0  0  0  0  0  0  0  0  0  0  0  0
    4.2201   -3.0531   -0.0000 C   0  0  0  0  0  0  0  0  0  0  0  0
   -3.1710    3.4185   -0.0000 C   0  0  0  0  0  0  0  0  0  0  0  0
   -4.3733    2.5344   -0.0000 C   0  0  0  0  0  0  0  0  0  0  0  0
    5.6347   -3.5010   -0.0000 F   0  0  0  0  0  0  0  0  0  0  0  0
    3.7486   -4.4676   -0.0000 F   0  0  0  0  0  0  0  0  0  0  0  0
    4.6680   -1.6150   -0.0000 F   0  0  0  0  0  0  0  0  0  0  0  0
   -3.1828    4.9274   -0.0000 C   0  0  0  0  0  0  0  0  0  0  0  0
   -3.1945    6.4362   -0.0000 C   0  0  0  0  0  0  0  0  0  0  0  0
   -3.2063    7.9451   -0.0000 C   0  0  0  0  0  0  0  0  0  0  0  0
   -4.5148    8.7113   -0.0000 C   0  0  0  0  0  0  0  0  0  0  0  0
   -1.9214    8.7113   -0.0000 C   0  0  0  0  0  0  0  0  0  0  0  0
   -4.5266   10.2202   -0.0000 C   0  0  0  0  0  0  0  0  0  0  0  0
   -1.9332   10.2202   -0.0000 C   0  0  0  0  0  0  0  0  0  0  0  0
   -3.2417   10.9746   -0.0000 C   0  0  0  0  0  0  0  0  0  0  0  0
  1  2  1  0  0  0  0
  1  3  1  0  0  0  0
  2  4  2  0  0  0  0
  2  5  1  0  0  0  0
  3  6  2  0  0  0  0
  3  7  1  0  0  0  0
  4  8  1  0  0  0  0
  5  9  1  0  0  0  0
  7 10  1  0  0  0  0
  7 11  2  0  0  0  0
  9 12  1  0  0  0  0
 10 13  1  0  0  0  0
 11 14  1  0  0  0  0
 12 15  1  0  0  0  0
 12 16  1  0  0  0  0
 12 17  1  0  0  0  0
 13 18  1  0  0  0  0
 18 19  3  0  0  0  0
 19 20  1  0  0  0  0
 20 21  2  0  0  0  0
 20 22  1  0  0  0  0
 21 23  1  0  0  0  0
 22 24  2  0  0  0  0
 23 25  2  0  0  0  0
  8  9  2  0  0  0  0
 13 14  2  0  0  0  0
 24 25  1  0  0  0  0
M  END
>  <MolRegNo>
356447

>  <m>
=

>  <Value>
3000

>  <Unit>
nM

>  <Type>
IC50

>  <Ligand Efficiency>
0.30

>  <Binding Efficiency>
15.20

>  <Surface Efficiency>
7.69

>  <Assay Index>
266027

>  <Assay Category>


>  <Assay Organism>
SARS coronavirus

>  <Target ID>
20012

>  <Target Name>
SARS coronavirus 3C-like proteinase

>  <Target Organism>
SARS coronavirus

>  <Target Description>
Target is a single protein chain

>  <Sequence Accession>
P0C6U8

>  <Reference>
J. Med. Chem. 49 (17), 5154-5161 (2006)

>  <Pubmed ID>
16913704

>  <DOI>
10.1021/jm060207o

>  <InChI-Key>
VNGWUVBXUIDQTK-UHFFFAOYSA-N

>  <Molecular Formula>
C16H8N3O2F3S

>  <Monoisotopic Mass>
363.028931

>  <Druglikeness>
-13.646

$$$$
Compound 565
Actelion Java MolfileCreator 1.0

 22 23  0  0  0  0  0  0  0  0999 V2000
    0.0000   -0.0000   -0.0000 O   0  0  0  0  0  0  0  0  0  0  0  0
   -0.0118   -1.4919   -0.0000 C   0  0  0  0  0  0  0  0  0  0  0  0
    1.2788   -2.2261   -0.0000 O   0  0  0  0  0  0  0  0  0  0  0  0
   -1.3262   -2.2261   -0.0000 C   0  0  0  0  0  0  0  0  0  0  0  0
   -1.3380   -3.7180   -0.0000 O   0  0  0  0  0  0  0  0  0  0  0  0
   -2.6405   -1.4683   -0.0000 C   0  0  0  0  0  0  0  0  0  0  0  0
   -3.9430   -2.2024   -0.0000 C   0  0  0  0  0  0  0  0  0  0  0  0
   -3.9548   -3.6943   -0.0000 O   0  0  0  0  0  0  0  0  0  0  0  0
   -5.2455   -1.4446   -0.0000 C   0  0  0  0  0  0  0  0  0  0  0  0
   -6.5361   -2.1787   -0.0000 C   0  0  0  0  0  0  0  0  0  0  0  0
   -5.2455    0.0710   -0.0000 C   0  0  0  0  0  0  0  0  0  0  0  0
   -7.8386   -1.4209   -0.0000 C   0  0  0  0  0  0  0  0  0  0  0  0
   -6.5480    0.8289   -0.0000 C   0  0  0  0  0  0  0  0  0  0  0  0
   -9.1411   -2.1669   -0.0000 O   0  0  0  0  0  0  0  0  0  0  0  0
   -7.8505    0.0947   -0.0000 C   0  0  0  0  0  0  0  0  0  0  0  0
  -10.4554   -1.4091   -0.0000 C   0  0  0  0  0  0  0  0  0  0  0  0
  -11.7579   -2.1550   -0.0000 C   0  0  0  0  0  0  0  0  0  0  0  0
  -11.7579   -3.6470   -0.0000 C   0  0  0  0  0  0  0  0  0  0  0  0
  -13.0604   -1.4091   -0.0000 C   0  0  0  0  0  0  0  0  0  0  0  0
  -13.0604   -4.3811   -0.0000 C   0  0  0  0  0  0  0  0  0  0  0  0
  -14.3511   -2.1432   -0.0000 C   0  0  0  0  0  0  0  0  0  0  0  0
  -14.3748   -3.6233   -0.0000 C   0  0  0  0  0  0  0  0  0  0  0  0
  1  2  2  0  0  0  0
  2  3  1  0  0  0  0
  2  4  1  0  0  0  0
  4  5  1  0  0  0  0
  4  6  2  0  0  0  0
  6  7  1  0  0  0  0
  7  8  2  0  0  0  0
  7  9  1  0  0  0  0
  9 10  2  0  0  0  0
  9 11  1  0  0  0  0
 10 12  1  0  0  0  0
 11 13  2  0  0  0  0
 12 14  1  0  0  0  0
 12 15  2  0  0  0  0
 14 16  1  0  0  0  0
 16 17  1  0  0  0  0
 17 18  2  0  0  0  0
 17 19  1  0  0  0  0
 18 20  1  0  0  0  0
 19 21  2  0  0  0  0
 20 22  2  0  0  0  0
 13 15  1  0  0  0  0
 21 22  1  0  0  0  0
M  END
>  <MolRegNo>
478458

>  <m>
>

>  <Value>
50000

>  <Unit>
nM

>  <Type>
IC50

>  <Ligand Efficiency>


>  <Binding Efficiency>


>  <Surface Efficiency>


>  <Assay Index>
414789

>  <Assay Category>


>  <Assay Organism>
SARS coronavirus

>  <Target ID>
101075

>  <Target Name>
Replicase polyprotein 1ab

>  <Target Organism>
SARS coronavirus

>  <Target Description>
Target is a single protein chain

>  <Sequence Accession>
P0C6X7

>  <Reference>
Bioorg. Med. Chem. Lett. 19 (6), 1636-1638 (2009)

>  <Pubmed ID>
19233643

>  <DOI>
10.1016/j.bmcl.2009.02.010

>  <InChI-Key>
VRKCLIARHIPPNE-UHFFFAOYSA-N

>  <Molecular Formula>
C17H14O5

>  <Monoisotopic Mass>
298.084125

>  <Druglikeness>
0.9175

$$$$
Compound 566
Actelion Java MolfileCreator 1.0

 22 23  0  0  0  0  0  0  0  0999 V2000
    0.0000   -0.0000   -0.0000 O   0  0  0  0  0  0  0  0  0  0  0  0
   -0.0118   -1.4919   -0.0000 C   0  0  0  0  0  0  0  0  0  0  0  0
    1.2788   -2.2261   -0.0000 O   0  0  0  0  0  0  0  0  0  0  0  0
   -1.3262   -2.2261   -0.0000 C   0  0  0  0  0  0  0  0  0  0  0  0
   -1.3380   -3.7180   -0.0000 O   0  0  0  0  0  0  0  0  0  0  0  0
   -2.6405   -1.4683   -0.0000 C   0  0  0  0  0  0  0  0  0  0  0  0
   -3.9430   -2.2024   -0.0000 C   0  0  0  0  0  0  0  0  0  0  0  0
   -3.9548   -3.6943   -0.0000 O   0  0  0  0  0  0  0  0  0  0  0  0
   -5.2455   -1.4446   -0.0000 C   0  0  0  0  0  0  0  0  0  0  0  0
   -6.5361   -2.1787   -0.0000 C   0  0  0  0  0  0  0  0  0  0  0  0
   -5.2455    0.0710   -0.0000 C   0  0  0  0  0  0  0  0  0  0  0  0
   -7.8386   -1.4209   -0.0000 C   0  0  0  0  0  0  0  0  0  0  0  0
   -6.5480    0.8289   -0.0000 C   0  0  0  0  0  0  0  0  0  0  0  0
   -9.1411   -2.1669   -0.0000 O   0  0  0  0  0  0  0  0  0  0  0  0
   -7.8505    0.0947   -0.0000 C   0  0  0  0  0  0  0  0  0  0  0  0
  -10.4554   -1.4091   -0.0000 C   0  0  0  0  0  0  0  0  0  0  0  0
  -11.7579   -2.1550   -0.0000 C   0  0  0  0  0  0  0  0  0  0  0  0
  -11.7579   -3.6470   -0.0000 C   0  0  0  0  0  0  0  0  0  0  0  0
  -13.0604   -1.4091   -0.0000 C   0  0  0  0  0  0  0  0  0  0  0  0
  -13.0604   -4.3811   -0.0000 C   0  0  0  0  0  0  0  0  0  0  0  0
  -14.3511   -2.1432   -0.0000 C   0  0  0  0  0  0  0  0  0  0  0  0
  -14.3748   -3.6233   -0.0000 C   0  0  0  0  0  0  0  0  0  0  0  0
  1  2  2  0  0  0  0
  2  3  1  0  0  0  0
  2  4  1  0  0  0  0
  4  5  1  0  0  0  0
  4  6  2  0  0  0  0
  6  7  1  0  0  0  0
  7  8  2  0  0  0  0
  7  9  1  0  0  0  0
  9 10  2  0  0  0  0
  9 11  1  0  0  0  0
 10 12  1  0  0  0  0
 11 13  2  0  0  0  0
 12 14  1  0  0  0  0
 12 15  2  0  0  0  0
 14 16  1  0  0  0  0
 16 17  1  0  0  0  0
 17 18  2  0  0  0  0
 17 19  1  0  0  0  0
 18 20  1  0  0  0  0
 19 21  2  0  0  0  0
 20 22  2  0  0  0  0
 13 15  1  0  0  0  0
 21 22  1  0  0  0  0
M  END
>  <MolRegNo>
478458

>  <m>
>

>  <Value>
50000

>  <Unit>
nM

>  <Type>
IC50

>  <Ligand Efficiency>


>  <Binding Efficiency>


>  <Surface Efficiency>


>  <Assay Index>
414790

>  <Assay Category>


>  <Assay Organism>
SARS coronavirus

>  <Target ID>
101075

>  <Target Name>
Replicase polyprotein 1ab

>  <Target Organism>
SARS coronavirus

>  <Target Description>
Target is a single protein chain

>  <Sequence Accession>
P0C6X7

>  <Reference>
Bioorg. Med. Chem. Lett. 19 (6), 1636-1638 (2009)

>  <Pubmed ID>
19233643

>  <DOI>
10.1016/j.bmcl.2009.02.010

>  <InChI-Key>
VRKCLIARHIPPNE-UHFFFAOYSA-N

>  <Molecular Formula>
C17H14O5

>  <Monoisotopic Mass>
298.084125

>  <Druglikeness>
0.9175

$$$$
Compound 567
Actelion Java MolfileCreator 1.0

 29 32  0  0  0  0  0  0  0  0999 V2000
    0.0000   -0.0000   -0.0000 F   0  0  0  0  0  0  0  0  0  0  0  0
   -1.3144    0.7578   -0.0000 C   0  0  0  0  0  0  0  0  0  0  0  0
   -2.6169    0.0118   -0.0000 C   0  0  0  0  0  0  0  0  0  0  0  0
   -1.3262    2.2617   -0.0000 C   0  0  0  0  0  0  0  0  0  0  0  0
   -3.9195    0.7697   -0.0000 C   0  0  0  0  0  0  0  0  0  0  0  0
   -2.6288    3.0077   -0.0000 C   0  0  0  0  0  0  0  0  0  0  0  0
   -3.9313    2.2735   -0.0000 C   0  0  0  0  0  0  0  0  0  0  0  0
   -5.2339    3.0314   -0.0000 C   0  0  0  0  0  0  0  0  0  0  0  0
   -6.5364    2.2972   -0.0000 N   0  0  0  0  0  0  0  0  0  0  0  0
   -7.8389    3.0551   -0.0000 C   0  0  0  0  0  0  0  0  0  0  0  0
   -7.8508    4.5589   -0.0000 O   0  0  0  0  0  0  0  0  0  0  0  0
   -9.1415    2.3209   -0.0000 C   0  0  0  0  0  0  0  0  0  0  0  0
   -9.1533    0.8407   -0.0000 C   0  0  0  0  0  0  0  0  0  0  0  0
  -10.4559    3.0787   -0.0000 C   0  0  0  0  0  0  0  0  0  0  0  0
  -10.4559    0.1066   -0.0000 C   0  0  0  0  0  0  0  0  0  0  0  0
  -11.7702    2.3446   -0.0000 C   0  0  0  0  0  0  0  0  0  0  0  0
  -11.7702    0.8644   -0.0000 N   0  0  0  0  0  0  0  0  0  0  0  0
  -13.0728    0.1184   -0.0000 C   0  0  0  0  0  0  0  0  0  0  0  0
  -13.0728   -1.3617   -0.0000 C   0  0  0  0  0  0  0  0  0  0  0  0
  -14.3872    0.8763   -0.0000 C   0  0  0  0  0  0  0  0  0  0  0  0
  -14.3753   -2.0959   -0.0000 C   0  0  0  0  0  0  0  0  0  0  0  0
  -11.7821   -2.0841   -0.0000 C   0  0  0  0  0  0  0  0  0  0  0  0
  -14.3872   -3.5879   -0.0000 C   0  0  0  0  0  0  0  0  0  0  0  0
  -15.6779   -1.3381   -0.0000 C   0  0  0  0  0  0  0  0  0  0  0  0
  -11.7821   -3.5761   -0.0000 C   0  0  0  0  0  0  0  0  0  0  0  0
  -13.1083   -4.3221   -0.0000 C   0  0  0  0  0  0  0  0  0  0  0  0
  -15.6897   -4.3339   -0.0000 C   0  0  0  0  0  0  0  0  0  0  0  0
  -16.9804   -2.0722   -0.0000 C   0  0  0  0  0  0  0  0  0  0  0  0
  -16.9923   -3.5761   -0.0000 C   0  0  0  0  0  0  0  0  0  0  0  0
  1  2  1  0  0  0  0
  2  3  2  0  0  0  0
  2  4  1  0  0  0  0
  3  5  1  0  0  0  0
  4  6  2  0  0  0  0
  5  7  2  0  0  0  0
  7  8  1  0  0  0  0
  8  9  1  0  0  0  0
  9 10  1  0  0  0  0
 10 11  2  0  0  0  0
 10 12  1  0  0  0  0
 12 13  1  0  0  0  0
 12 14  1  0  0  0  0
 13 15  1  0  0  0  0
 14 16  1  0  0  0  0
 15 17  1  0  0  0  0
 18 17  1  6  0  0  0
 18 19  1  0  0  0  0
 18 20  1  0  0  0  0
 19 21  1  0  0  0  0
 19 22  2  0  0  0  0
 21 23  1  0  0  0  0
 21 24  2  0  0  0  0
 22 25  1  0  0  0  0
 23 26  1  0  0  0  0
 23 27  2  0  0  0  0
 24 28  1  0  0  0  0
 27 29  1  0  0  0  0
  6  7  1  0  0  0  0
 16 17  1  0  0  0  0
 25 26  2  0  0  0  0
 28 29  2  0  0  0  0
M  END
>  <MolRegNo>
1732321

>  <m>
=

>  <Value>
11600

>  <Unit>
nM

>  <Type>
EC50

>  <Ligand Efficiency>


>  <Binding Efficiency>


>  <Surface Efficiency>


>  <Assay Index>
843084

>  <Assay Category>


>  <Assay Organism>
SARS coronavirus

>  <Target ID>
100499

>  <Target Name>
SARS coronavirus

>  <Target Organism>
SARS coronavirus

>  <Target Description>
Target is a complete organism

>  <Sequence Accession>


>  <Reference>
J. Med. Chem. 57 (6), 2393-2412 (2014)

>  <Pubmed ID>
24568342

>  <DOI>
10.1021/jm401712t

>  <InChI-Key>
VTAUBQMDNJOEAK-SFHVURJKSA-N

>  <Molecular Formula>
C25H27N2OF

>  <Monoisotopic Mass>
390.210741

>  <Druglikeness>
5.4254

$$$$
Compound 568
Actelion Java MolfileCreator 1.0

 15 16  0  0  0  0  0  0  0  0999 V2000
    0.0000   -0.0000   -0.0000 S   0  0  0  0  0  0  0  0  0  0  0  0
    1.3553    0.6301   -0.0000 C   0  0  0  0  0  0  0  0  0  0  0  0
   -1.0224    1.1294   -0.0000 C   0  0  0  0  0  0  0  0  0  0  0  0
    2.6511   -0.1070   -0.0000 C   0  0  0  0  0  0  0  0  0  0  0  0
    1.1888    2.1399   -0.0000 C   0  0  0  0  0  0  0  0  0  0  0  0
   -0.2853    2.4490   -0.0000 C   0  0  0  0  0  0  0  0  0  0  0  0
    2.6392   -1.6049   -0.0000 O   0  0  0  0  0  0  0  0  0  0  0  0
    3.9469    0.6538   -0.0000 N   0  0  0  0  0  0  0  0  0  0  0  0
    5.2427   -0.0832   -0.0000 C   0  0  0  0  0  0  0  0  0  0  0  0
    5.2308   -1.5811   -0.0000 N   0  0  0  0  0  0  0  0  0  0  0  0
    6.5266    0.6776   -0.0000 C   0  0  0  0  0  0  0  0  0  0  0  0
    6.5266   -2.3182   -0.0000 C   0  0  0  0  0  0  0  0  0  0  0  0
    7.8224   -0.0594   -0.0000 C   0  0  0  0  0  0  0  0  0  0  0  0
    7.8224   -1.5574   -0.0000 C   0  0  0  0  0  0  0  0  0  0  0  0
    9.1182   -2.2944   -0.0000 F   0  0  0  0  0  0  0  0  0  0  0  0
  1  2  1  0  0  0  0
  1  3  1  0  0  0  0
  2  4  1  0  0  0  0
  2  5  2  0  0  0  0
  3  6  2  0  0  0  0
  4  7  2  0  0  0  0
  4  8  1  0  0  0  0
  8  9  1  0  0  0  0
  9 10  2  0  0  0  0
  9 11  1  0  0  0  0
 10 12  1  0  0  0  0
 11 13  2  0  0  0  0
 12 14  2  0  0  0  0
 14 15  1  0  0  0  0
  5  6  1  0  0  0  0
 13 14  1  0  0  0  0
M  END
>  <MolRegNo>
371816

>  <m>
<

>  <Value>
10

>  <Unit>
%

>  <Type>
Inhibition

>  <Ligand Efficiency>


>  <Binding Efficiency>


>  <Surface Efficiency>


>  <Assay Index>
278390

>  <Assay Category>


>  <Assay Organism>
SARS coronavirus

>  <Target ID>
20012

>  <Target Name>
SARS coronavirus 3C-like proteinase

>  <Target Organism>
SARS coronavirus

>  <Target Description>
Target is a single protein chain

>  <Sequence Accession>
P0C6U8

>  <Reference>
J. Med. Chem. 50 (8), 1850-1864 (2007)

>  <Pubmed ID>
17381079

>  <DOI>
10.1021/jm061425k

>  <InChI-Key>
VTZNBWPAAXJPTQ-UHFFFAOYSA-N

>  <Molecular Formula>
C10H7N2OFS

>  <Monoisotopic Mass>
222.026311

>  <Druglikeness>
1.9428

$$$$
Compound 569
Actelion Java MolfileCreator 1.0

 20 21  0  0  0  0  0  0  0  0999 V2000
    0.0000   -0.0000   -0.0000 O   0  0  0  0  0  0  0  0  0  0  0  0
   -0.7188    1.3315   -0.0000 C   0  0  0  0  0  0  0  0  0  0  0  0
    0.0589    2.6159   -0.0000 C   0  0  0  0  0  0  0  0  0  0  0  0
   -2.2271    1.3904   -0.0000 C   0  0  0  0  0  0  0  0  0  0  0  0
    1.5436    2.5806   -0.0000 C   0  0  0  0  0  0  0  0  0  0  0  0
   -0.6599    3.9475   -0.0000 C   0  0  0  0  0  0  0  0  0  0  0  0
   -2.9459    2.7220   -0.0000 C   0  0  0  0  0  0  0  0  0  0  0  0
    2.2389    1.2726   -0.0000 C   0  0  0  0  0  0  0  0  0  0  0  0
    2.3213    3.8650   -0.0000 C   0  0  0  0  0  0  0  0  0  0  0  0
   -2.1682    4.0064   -0.0000 C   0  0  0  0  0  0  0  0  0  0  0  0
    1.4376    0.0118   -0.0000 O   0  0  0  0  0  0  0  0  0  0  0  0
    3.7236    1.2373   -0.0000 C   0  0  0  0  0  0  0  0  0  0  0  0
    3.8061    3.8296   -0.0000 C   0  0  0  0  0  0  0  0  0  0  0  0
   -2.8869    5.3379   -0.0000 C   0  0  0  0  0  0  0  0  0  0  0  0
    4.5013    2.5217   -0.0000 C   0  0  0  0  0  0  0  0  0  0  0  0
    4.5838    5.1140   -0.0000 C   0  0  0  0  0  0  0  0  0  0  0  0
   -4.3952    5.3968   -0.0000 C   0  0  0  0  0  0  0  0  0  0  0  0
    6.0685    5.0787   -0.0000 C   0  0  0  0  0  0  0  0  0  0  0  0
   -5.1140    6.7283   -0.0000 C   0  0  0  0  0  0  0  0  0  0  0  0
    6.8462    6.3631   -0.0000 C   0  0  0  0  0  0  0  0  0  0  0  0
  1  2  1  0  0  0  0
  2  3  2  0  0  0  0
  2  4  1  0  0  0  0
  3  5  1  0  0  0  0
  3  6  1  0  0  0  0
  4  7  2  0  0  0  0
  5  8  2  0  0  0  0
  5  9  1  0  0  0  0
  6 10  2  0  0  0  0
  8 11  1  0  0  0  0
  8 12  1  0  0  0  0
  9 13  2  0  0  0  0
 10 14  1  0  0  0  0
 12 15  2  0  0  0  0
 13 16  1  0  0  0  0
 14 17  1  0  0  0  0
 16 18  1  0  0  0  0
 17 19  2  0  0  0  0
 18 20  2  0  0  0  0
  7 10  1  0  0  0  0
 13 15  1  0  0  0  0
M  END
>  <MolRegNo>
304777

>  <m>


>  <Value>
0

>  <Unit>


>  <Type>
Activity

>  <Ligand Efficiency>


>  <Binding Efficiency>


>  <Surface Efficiency>


>  <Assay Index>
294025

>  <Assay Category>


>  <Assay Organism>
SARS coronavirus

>  <Target ID>
100499

>  <Target Name>
SARS coronavirus

>  <Target Organism>
SARS coronavirus

>  <Target Description>
Target is a complete organism

>  <Sequence Accession>


>  <Reference>
J. Med. Chem. 50 (17), 4087-4095 (2007)

>  <Pubmed ID>
17663539

>  <DOI>
10.1021/jm070295s

>  <InChI-Key>
VVOAZFWZEDHOOU-UHFFFAOYSA-N

>  <Molecular Formula>
C18H18O2

>  <Monoisotopic Mass>
266.130680

>  <Druglikeness>
-4.9267

$$$$
Compound 570
Actelion Java MolfileCreator 1.0

 20 21  0  0  0  0  0  0  0  0999 V2000
    0.0000   -0.0000   -0.0000 O   0  0  0  0  0  0  0  0  0  0  0  0
   -0.7188    1.3315   -0.0000 C   0  0  0  0  0  0  0  0  0  0  0  0
    0.0589    2.6159   -0.0000 C   0  0  0  0  0  0  0  0  0  0  0  0
   -2.2271    1.3904   -0.0000 C   0  0  0  0  0  0  0  0  0  0  0  0
    1.5436    2.5806   -0.0000 C   0  0  0  0  0  0  0  0  0  0  0  0
   -0.6599    3.9475   -0.0000 C   0  0  0  0  0  0  0  0  0  0  0  0
   -2.9459    2.7220   -0.0000 C   0  0  0  0  0  0  0  0  0  0  0  0
    2.2389    1.2726   -0.0000 C   0  0  0  0  0  0  0  0  0  0  0  0
    2.3213    3.8650   -0.0000 C   0  0  0  0  0  0  0  0  0  0  0  0
   -2.1682    4.0064   -0.0000 C   0  0  0  0  0  0  0  0  0  0  0  0
    1.4376    0.0118   -0.0000 O   0  0  0  0  0  0  0  0  0  0  0  0
    3.7236    1.2373   -0.0000 C   0  0  0  0  0  0  0  0  0  0  0  0
    3.8061    3.8296   -0.0000 C   0  0  0  0  0  0  0  0  0  0  0  0
   -2.8869    5.3379   -0.0000 C   0  0  0  0  0  0  0  0  0  0  0  0
    4.5013    2.5217   -0.0000 C   0  0  0  0  0  0  0  0  0  0  0  0
    4.5838    5.1140   -0.0000 C   0  0  0  0  0  0  0  0  0  0  0  0
   -4.3952    5.3968   -0.0000 C   0  0  0  0  0  0  0  0  0  0  0  0
    6.0685    5.0787   -0.0000 C   0  0  0  0  0  0  0  0  0  0  0  0
   -5.1140    6.7283   -0.0000 C   0  0  0  0  0  0  0  0  0  0  0  0
    6.8462    6.3631   -0.0000 C   0  0  0  0  0  0  0  0  0  0  0  0
  1  2  1  0  0  0  0
  2  3  2  0  0  0  0
  2  4  1  0  0  0  0
  3  5  1  0  0  0  0
  3  6  1  0  0  0  0
  4  7  2  0  0  0  0
  5  8  2  0  0  0  0
  5  9  1  0  0  0  0
  6 10  2  0  0  0  0
  8 11  1  0  0  0  0
  8 12  1  0  0  0  0
  9 13  2  0  0  0  0
 10 14  1  0  0  0  0
 12 15  2  0  0  0  0
 13 16  1  0  0  0  0
 14 17  1  0  0  0  0
 16 18  1  0  0  0  0
 17 19  2  0  0  0  0
 18 20  2  0  0  0  0
  7 10  1  0  0  0  0
 13 15  1  0  0  0  0
M  END
>  <MolRegNo>
304777

>  <m>
=

>  <Value>
3800

>  <Unit>
nM

>  <Type>
EC50

>  <Ligand Efficiency>


>  <Binding Efficiency>


>  <Surface Efficiency>


>  <Assay Index>
294026

>  <Assay Category>


>  <Assay Organism>
SARS coronavirus

>  <Target ID>
100499

>  <Target Name>
SARS coronavirus

>  <Target Organism>
SARS coronavirus

>  <Target Description>
Target is a complete organism

>  <Sequence Accession>


>  <Reference>
J. Med. Chem. 50 (17), 4087-4095 (2007)

>  <Pubmed ID>
17663539

>  <DOI>
10.1021/jm070295s

>  <InChI-Key>
VVOAZFWZEDHOOU-UHFFFAOYSA-N

>  <Molecular Formula>
C18H18O2

>  <Monoisotopic Mass>
266.130680

>  <Druglikeness>
-4.9267

$$$$
Compound 571
Actelion Java MolfileCreator 1.0

 20 21  0  0  0  0  0  0  0  0999 V2000
    0.0000   -0.0000   -0.0000 O   0  0  0  0  0  0  0  0  0  0  0  0
   -0.7188    1.3315   -0.0000 C   0  0  0  0  0  0  0  0  0  0  0  0
    0.0589    2.6159   -0.0000 C   0  0  0  0  0  0  0  0  0  0  0  0
   -2.2271    1.3904   -0.0000 C   0  0  0  0  0  0  0  0  0  0  0  0
    1.5436    2.5806   -0.0000 C   0  0  0  0  0  0  0  0  0  0  0  0
   -0.6599    3.9475   -0.0000 C   0  0  0  0  0  0  0  0  0  0  0  0
   -2.9459    2.7220   -0.0000 C   0  0  0  0  0  0  0  0  0  0  0  0
    2.2389    1.2726   -0.0000 C   0  0  0  0  0  0  0  0  0  0  0  0
    2.3213    3.8650   -0.0000 C   0  0  0  0  0  0  0  0  0  0  0  0
   -2.1682    4.0064   -0.0000 C   0  0  0  0  0  0  0  0  0  0  0  0
    1.4376    0.0118   -0.0000 O   0  0  0  0  0  0  0  0  0  0  0  0
    3.7236    1.2373   -0.0000 C   0  0  0  0  0  0  0  0  0  0  0  0
    3.8061    3.8296   -0.0000 C   0  0  0  0  0  0  0  0  0  0  0  0
   -2.8869    5.3379   -0.0000 C   0  0  0  0  0  0  0  0  0  0  0  0
    4.5013    2.5217   -0.0000 C   0  0  0  0  0  0  0  0  0  0  0  0
    4.5838    5.1140   -0.0000 C   0  0  0  0  0  0  0  0  0  0  0  0
   -4.3952    5.3968   -0.0000 C   0  0  0  0  0  0  0  0  0  0  0  0
    6.0685    5.0787   -0.0000 C   0  0  0  0  0  0  0  0  0  0  0  0
   -5.1140    6.7283   -0.0000 C   0  0  0  0  0  0  0  0  0  0  0  0
    6.8462    6.3631   -0.0000 C   0  0  0  0  0  0  0  0  0  0  0  0
  1  2  1  0  0  0  0
  2  3  2  0  0  0  0
  2  4  1  0  0  0  0
  3  5  1  0  0  0  0
  3  6  1  0  0  0  0
  4  7  2  0  0  0  0
  5  8  2  0  0  0  0
  5  9  1  0  0  0  0
  6 10  2  0  0  0  0
  8 11  1  0  0  0  0
  8 12  1  0  0  0  0
  9 13  2  0  0  0  0
 10 14  1  0  0  0  0
 12 15  2  0  0  0  0
 13 16  1  0  0  0  0
 14 17  1  0  0  0  0
 16 18  1  0  0  0  0
 17 19  2  0  0  0  0
 18 20  2  0  0  0  0
  7 10  1  0  0  0  0
 13 15  1  0  0  0  0
M  END
>  <MolRegNo>
304777

>  <m>
=

>  <Value>
50

>  <Unit>
%

>  <Type>
Inhibition

>  <Ligand Efficiency>


>  <Binding Efficiency>


>  <Surface Efficiency>


>  <Assay Index>
294024

>  <Assay Category>


>  <Assay Organism>
SARS coronavirus

>  <Target ID>
100499

>  <Target Name>
SARS coronavirus

>  <Target Organism>
SARS coronavirus

>  <Target Description>
Target is a complete organism

>  <Sequence Accession>


>  <Reference>
J. Med. Chem. 50 (17), 4087-4095 (2007)

>  <Pubmed ID>
17663539

>  <DOI>
10.1021/jm070295s

>  <InChI-Key>
VVOAZFWZEDHOOU-UHFFFAOYSA-N

>  <Molecular Formula>
C18H18O2

>  <Monoisotopic Mass>
266.130680

>  <Druglikeness>
-4.9267

$$$$
Compound 572
Actelion Java MolfileCreator 1.0

 20 21  0  0  0  0  0  0  0  0999 V2000
    0.0000   -0.0000   -0.0000 O   0  0  0  0  0  0  0  0  0  0  0  0
   -0.7188    1.3315   -0.0000 C   0  0  0  0  0  0  0  0  0  0  0  0
    0.0589    2.6159   -0.0000 C   0  0  0  0  0  0  0  0  0  0  0  0
   -2.2271    1.3904   -0.0000 C   0  0  0  0  0  0  0  0  0  0  0  0
    1.5436    2.5806   -0.0000 C   0  0  0  0  0  0  0  0  0  0  0  0
   -0.6599    3.9475   -0.0000 C   0  0  0  0  0  0  0  0  0  0  0  0
   -2.9459    2.7220   -0.0000 C   0  0  0  0  0  0  0  0  0  0  0  0
    2.2389    1.2726   -0.0000 C   0  0  0  0  0  0  0  0  0  0  0  0
    2.3213    3.8650   -0.0000 C   0  0  0  0  0  0  0  0  0  0  0  0
   -2.1682    4.0064   -0.0000 C   0  0  0  0  0  0  0  0  0  0  0  0
    1.4376    0.0118   -0.0000 O   0  0  0  0  0  0  0  0  0  0  0  0
    3.7236    1.2373   -0.0000 C   0  0  0  0  0  0  0  0  0  0  0  0
    3.8061    3.8296   -0.0000 C   0  0  0  0  0  0  0  0  0  0  0  0
   -2.8869    5.3379   -0.0000 C   0  0  0  0  0  0  0  0  0  0  0  0
    4.5013    2.5217   -0.0000 C   0  0  0  0  0  0  0  0  0  0  0  0
    4.5838    5.1140   -0.0000 C   0  0  0  0  0  0  0  0  0  0  0  0
   -4.3952    5.3968   -0.0000 C   0  0  0  0  0  0  0  0  0  0  0  0
    6.0685    5.0787   -0.0000 C   0  0  0  0  0  0  0  0  0  0  0  0
   -5.1140    6.7283   -0.0000 C   0  0  0  0  0  0  0  0  0  0  0  0
    6.8462    6.3631   -0.0000 C   0  0  0  0  0  0  0  0  0  0  0  0
  1  2  1  0  0  0  0
  2  3  2  0  0  0  0
  2  4  1  0  0  0  0
  3  5  1  0  0  0  0
  3  6  1  0  0  0  0
  4  7  2  0  0  0  0
  5  8  2  0  0  0  0
  5  9  1  0  0  0  0
  6 10  2  0  0  0  0
  8 11  1  0  0  0  0
  8 12  1  0  0  0  0
  9 13  2  0  0  0  0
 10 14  1  0  0  0  0
 12 15  2  0  0  0  0
 13 16  1  0  0  0  0
 14 17  1  0  0  0  0
 16 18  1  0  0  0  0
 17 19  2  0  0  0  0
 18 20  2  0  0  0  0
  7 10  1  0  0  0  0
 13 15  1  0  0  0  0
M  END
>  <MolRegNo>
304777

>  <m>
<

>  <Value>
25

>  <Unit>
%

>  <Type>
Inhibition

>  <Ligand Efficiency>


>  <Binding Efficiency>


>  <Surface Efficiency>


>  <Assay Index>
294022

>  <Assay Category>


>  <Assay Organism>
SARS coronavirus

>  <Target ID>
100499

>  <Target Name>
SARS coronavirus

>  <Target Organism>
SARS coronavirus

>  <Target Description>
Target is a complete organism

>  <Sequence Accession>


>  <Reference>
J. Med. Chem. 50 (17), 4087-4095 (2007)

>  <Pubmed ID>
17663539

>  <DOI>
10.1021/jm070295s

>  <InChI-Key>
VVOAZFWZEDHOOU-UHFFFAOYSA-N

>  <Molecular Formula>
C18H18O2

>  <Monoisotopic Mass>
266.130680

>  <Druglikeness>
-4.9267

$$$$
Compound 573
Actelion Java MolfileCreator 1.0

 20 21  0  0  0  0  0  0  0  0999 V2000
    0.0000   -0.0000   -0.0000 O   0  0  0  0  0  0  0  0  0  0  0  0
   -0.7188    1.3315   -0.0000 C   0  0  0  0  0  0  0  0  0  0  0  0
    0.0589    2.6159   -0.0000 C   0  0  0  0  0  0  0  0  0  0  0  0
   -2.2271    1.3904   -0.0000 C   0  0  0  0  0  0  0  0  0  0  0  0
    1.5436    2.5806   -0.0000 C   0  0  0  0  0  0  0  0  0  0  0  0
   -0.6599    3.9475   -0.0000 C   0  0  0  0  0  0  0  0  0  0  0  0
   -2.9459    2.7220   -0.0000 C   0  0  0  0  0  0  0  0  0  0  0  0
    2.2389    1.2726   -0.0000 C   0  0  0  0  0  0  0  0  0  0  0  0
    2.3213    3.8650   -0.0000 C   0  0  0  0  0  0  0  0  0  0  0  0
   -2.1682    4.0064   -0.0000 C   0  0  0  0  0  0  0  0  0  0  0  0
    1.4376    0.0118   -0.0000 O   0  0  0  0  0  0  0  0  0  0  0  0
    3.7236    1.2373   -0.0000 C   0  0  0  0  0  0  0  0  0  0  0  0
    3.8061    3.8296   -0.0000 C   0  0  0  0  0  0  0  0  0  0  0  0
   -2.8869    5.3379   -0.0000 C   0  0  0  0  0  0  0  0  0  0  0  0
    4.5013    2.5217   -0.0000 C   0  0  0  0  0  0  0  0  0  0  0  0
    4.5838    5.1140   -0.0000 C   0  0  0  0  0  0  0  0  0  0  0  0
   -4.3952    5.3968   -0.0000 C   0  0  0  0  0  0  0  0  0  0  0  0
    6.0685    5.0787   -0.0000 C   0  0  0  0  0  0  0  0  0  0  0  0
   -5.1140    6.7283   -0.0000 C   0  0  0  0  0  0  0  0  0  0  0  0
    6.8462    6.3631   -0.0000 C   0  0  0  0  0  0  0  0  0  0  0  0
  1  2  1  0  0  0  0
  2  3  2  0  0  0  0
  2  4  1  0  0  0  0
  3  5  1  0  0  0  0
  3  6  1  0  0  0  0
  4  7  2  0  0  0  0
  5  8  2  0  0  0  0
  5  9  1  0  0  0  0
  6 10  2  0  0  0  0
  8 11  1  0  0  0  0
  8 12  1  0  0  0  0
  9 13  2  0  0  0  0
 10 14  1  0  0  0  0
 12 15  2  0  0  0  0
 13 16  1  0  0  0  0
 14 17  1  0  0  0  0
 16 18  1  0  0  0  0
 17 19  2  0  0  0  0
 18 20  2  0  0  0  0
  7 10  1  0  0  0  0
 13 15  1  0  0  0  0
M  END
>  <MolRegNo>
304777

>  <m>
<

>  <Value>
25

>  <Unit>
%

>  <Type>
Inhibition

>  <Ligand Efficiency>


>  <Binding Efficiency>


>  <Surface Efficiency>


>  <Assay Index>
294023

>  <Assay Category>


>  <Assay Organism>
SARS coronavirus

>  <Target ID>
100499

>  <Target Name>
SARS coronavirus

>  <Target Organism>
SARS coronavirus

>  <Target Description>
Target is a complete organism

>  <Sequence Accession>


>  <Reference>
J. Med. Chem. 50 (17), 4087-4095 (2007)

>  <Pubmed ID>
17663539

>  <DOI>
10.1021/jm070295s

>  <InChI-Key>
VVOAZFWZEDHOOU-UHFFFAOYSA-N

>  <Molecular Formula>
C18H18O2

>  <Monoisotopic Mass>
266.130680

>  <Druglikeness>
-4.9267

$$$$
Compound 574
Actelion Java MolfileCreator 1.0

 31 33  0  0  0  0  0  0  0  0999 V2000
    0.0000   -0.0000   -0.0000 S   0  0  0  0  0  0  0  0  0  0  0  0
    1.2857   -0.7381   -0.0000 C   0  0  0  0  0  0  0  0  0  0  0  0
   -1.3095   -0.7381   -0.0000 C   0  0  0  0  0  0  0  0  0  0  0  0
    2.5595    0.0357   -0.0000 N   0  0  0  0  0  0  0  0  0  0  0  0
    1.2619   -2.2261   -0.0000 N   0  0  0  0  0  0  0  0  0  0  0  0
   -2.6190    0.0238   -0.0000 C   0  0  0  0  0  0  0  0  0  0  0  0
    3.8451   -0.6905   -0.0000 C   0  0  0  0  0  0  0  0  0  0  0  0
    2.5475   -2.9642   -0.0000 C   0  0  0  0  0  0  0  0  0  0  0  0
   -2.6309    1.5357   -0.0000 O   0  0  0  0  0  0  0  0  0  0  0  0
   -3.9285   -0.7143   -0.0000 N   0  0  0  0  0  0  0  0  0  0  0  0
    5.1308    0.0714   -0.0000 O   0  0  0  0  0  0  0  0  0  0  0  0
    3.8451   -2.1904   -0.0000 C   0  0  0  0  0  0  0  0  0  0  0  0
    2.5356   -4.4523   -0.0000 C   0  0  0  0  0  0  0  0  0  0  0  0
   -5.2499    0.0476   -0.0000 C   0  0  0  0  0  0  0  0  0  0  0  0
    5.1308   -2.9285   -0.0000 C   0  0  0  0  0  0  0  0  0  0  0  0
    3.8213   -5.1784   -0.0000 C   0  0  0  0  0  0  0  0  0  0  0  0
    1.2143   -5.1903   -0.0000 C   0  0  0  0  0  0  0  0  0  0  0  0
   -6.5712   -0.6905   -0.0000 C   0  0  0  0  0  0  0  0  0  0  0  0
   -5.2618    1.5714   -0.0000 C   0  0  0  0  0  0  0  0  0  0  0  0
    6.4165   -3.6666   -0.0000 N   0  0  0  0  0  0  0  0  0  0  0  0
    3.8094   -6.6546   -0.0000 C   0  0  0  0  0  0  0  0  0  0  0  0
    1.2143   -6.6784   -0.0000 C   0  0  0  0  0  0  0  0  0  0  0  0
   -7.8807    0.0714   -0.0000 C   0  0  0  0  0  0  0  0  0  0  0  0
   -6.5951    2.3333   -0.0000 C   0  0  0  0  0  0  0  0  0  0  0  0
    5.0951   -7.3927   -0.0000 O   0  0  0  0  0  0  0  0  0  0  0  0
    2.4880   -7.4165   -0.0000 C   0  0  0  0  0  0  0  0  0  0  0  0
   -7.8926    1.5833   -0.0000 C   0  0  0  0  0  0  0  0  0  0  0  0
    5.0832   -8.8926   -0.0000 C   0  0  0  0  0  0  0  0  0  0  0  0
   -9.2021    2.3452   -0.0000 N   0  0  0  0  0  0  0  0  0  0  0  0
  -10.5116    1.6071   -0.0000 O   0  0  0  0  0  0  0  0  0  0  0  0
   -9.2140    3.8570   -0.0000 O   0  0  0  0  0  0  0  0  0  0  0  0
  1  2  1  0  0  0  0
  1  3  1  0  0  0  0
  2  4  2  0  0  0  0
  2  5  1  0  0  0  0
  3  6  1  0  0  0  0
  4  7  1  0  0  0  0
  5  8  2  0  0  0  0
  6  9  2  0  0  0  0
  6 10  1  0  0  0  0
  7 11  1  0  0  0  0
  7 12  2  0  0  0  0
  8 13  1  0  0  0  0
 10 14  1  0  0  0  0
 12 15  1  0  0  0  0
 13 16  2  0  0  0  0
 13 17  1  0  0  0  0
 14 18  2  0  0  0  0
 14 19  1  0  0  0  0
 15 20  3  0  0  0  0
 16 21  1  0  0  0  0
 17 22  2  0  0  0  0
 18 23  1  0  0  0  0
 19 24  2  0  0  0  0
 21 25  1  0  0  0  0
 21 26  2  0  0  0  0
 23 27  2  0  0  0  0
 25 28  1  0  0  0  0
 27 29  1  0  0  0  0
 29 30  2  0  0  0  0
 29 31  1  0  0  0  0
  8 12  1  0  0  0  0
 22 26  1  0  0  0  0
 24 27  1  0  0  0  0
M  CHG  2  29   1  31  -1
M  END
>  <MolRegNo>
348922

>  <m>
=

>  <Value>
3.3113e12

>  <Unit>
nM

>  <Type>
IC50

>  <Ligand Efficiency>


>  <Binding Efficiency>


>  <Surface Efficiency>


>  <Assay Index>
262926

>  <Assay Category>


>  <Assay Organism>
SARS coronavirus

>  <Target ID>
20012

>  <Target Name>
SARS coronavirus 3C-like proteinase

>  <Target Organism>
SARS coronavirus

>  <Target Description>
Target is a single protein chain

>  <Sequence Accession>
P0C6U8

>  <Reference>
J. Med. Chem. 49 (12), 3485-3495 (2006)

>  <Pubmed ID>
16759091

>  <DOI>
10.1021/jm050852f

>  <InChI-Key>
VZQGOJYNWVCAKC-UHFFFAOYSA-N

>  <Molecular Formula>
C20H15N5O5S

>  <Monoisotopic Mass>
437.079390

>  <Druglikeness>
-7.8995

$$$$
Compound 575
Actelion Java MolfileCreator 1.0

 31 33  0  0  0  0  0  0  0  0999 V2000
    0.0000   -0.0000   -0.0000 S   0  0  0  0  0  0  0  0  0  0  0  0
    1.2857   -0.7381   -0.0000 C   0  0  0  0  0  0  0  0  0  0  0  0
   -1.3095   -0.7381   -0.0000 C   0  0  0  0  0  0  0  0  0  0  0  0
    2.5595    0.0357   -0.0000 N   0  0  0  0  0  0  0  0  0  0  0  0
    1.2619   -2.2261   -0.0000 N   0  0  0  0  0  0  0  0  0  0  0  0
   -2.6190    0.0238   -0.0000 C   0  0  0  0  0  0  0  0  0  0  0  0
    3.8451   -0.6905   -0.0000 C   0  0  0  0  0  0  0  0  0  0  0  0
    2.5475   -2.9642   -0.0000 C   0  0  0  0  0  0  0  0  0  0  0  0
   -2.6309    1.5357   -0.0000 O   0  0  0  0  0  0  0  0  0  0  0  0
   -3.9285   -0.7143   -0.0000 N   0  0  0  0  0  0  0  0  0  0  0  0
    5.1308    0.0714   -0.0000 O   0  0  0  0  0  0  0  0  0  0  0  0
    3.8451   -2.1904   -0.0000 C   0  0  0  0  0  0  0  0  0  0  0  0
    2.5356   -4.4523   -0.0000 C   0  0  0  0  0  0  0  0  0  0  0  0
   -5.2499    0.0476   -0.0000 C   0  0  0  0  0  0  0  0  0  0  0  0
    5.1308   -2.9285   -0.0000 C   0  0  0  0  0  0  0  0  0  0  0  0
    3.8213   -5.1784   -0.0000 C   0  0  0  0  0  0  0  0  0  0  0  0
    1.2143   -5.1903   -0.0000 C   0  0  0  0  0  0  0  0  0  0  0  0
   -6.5712   -0.6905   -0.0000 C   0  0  0  0  0  0  0  0  0  0  0  0
   -5.2618    1.5714   -0.0000 C   0  0  0  0  0  0  0  0  0  0  0  0
    6.4165   -3.6666   -0.0000 N   0  0  0  0  0  0  0  0  0  0  0  0
    3.8094   -6.6546   -0.0000 C   0  0  0  0  0  0  0  0  0  0  0  0
    1.2143   -6.6784   -0.0000 C   0  0  0  0  0  0  0  0  0  0  0  0
   -7.8807    0.0714   -0.0000 C   0  0  0  0  0  0  0  0  0  0  0  0
   -6.5951    2.3333   -0.0000 C   0  0  0  0  0  0  0  0  0  0  0  0
    5.0951   -7.3927   -0.0000 O   0  0  0  0  0  0  0  0  0  0  0  0
    2.4880   -7.4165   -0.0000 C   0  0  0  0  0  0  0  0  0  0  0  0
   -7.8926    1.5833   -0.0000 C   0  0  0  0  0  0  0  0  0  0  0  0
    5.0832   -8.8926   -0.0000 C   0  0  0  0  0  0  0  0  0  0  0  0
   -9.2021    2.3452   -0.0000 N   0  0  0  0  0  0  0  0  0  0  0  0
  -10.5116    1.6071   -0.0000 O   0  0  0  0  0  0  0  0  0  0  0  0
   -9.2140    3.8570   -0.0000 O   0  0  0  0  0  0  0  0  0  0  0  0
  1  2  1  0  0  0  0
  1  3  1  0  0  0  0
  2  4  2  0  0  0  0
  2  5  1  0  0  0  0
  3  6  1  0  0  0  0
  4  7  1  0  0  0  0
  5  8  2  0  0  0  0
  6  9  2  0  0  0  0
  6 10  1  0  0  0  0
  7 11  1  0  0  0  0
  7 12  2  0  0  0  0
  8 13  1  0  0  0  0
 10 14  1  0  0  0  0
 12 15  1  0  0  0  0
 13 16  2  0  0  0  0
 13 17  1  0  0  0  0
 14 18  2  0  0  0  0
 14 19  1  0  0  0  0
 15 20  3  0  0  0  0
 16 21  1  0  0  0  0
 17 22  2  0  0  0  0
 18 23  1  0  0  0  0
 19 24  2  0  0  0  0
 21 25  1  0  0  0  0
 21 26  2  0  0  0  0
 23 27  2  0  0  0  0
 25 28  1  0  0  0  0
 27 29  1  0  0  0  0
 29 30  2  0  0  0  0
 29 31  1  0  0  0  0
  8 12  1  0  0  0  0
 22 26  1  0  0  0  0
 24 27  1  0  0  0  0
M  CHG  2  29   1  31  -1
M  END
>  <MolRegNo>
348922

>  <m>
=

>  <Value>
3.0e5

>  <Unit>
nM

>  <Type>
IC50

>  <Ligand Efficiency>


>  <Binding Efficiency>


>  <Surface Efficiency>


>  <Assay Index>
262926

>  <Assay Category>


>  <Assay Organism>
SARS coronavirus

>  <Target ID>
20012

>  <Target Name>
SARS coronavirus 3C-like proteinase

>  <Target Organism>
SARS coronavirus

>  <Target Description>
Target is a single protein chain

>  <Sequence Accession>
P0C6U8

>  <Reference>
J. Med. Chem. 49 (12), 3485-3495 (2006)

>  <Pubmed ID>
16759091

>  <DOI>
10.1021/jm050852f

>  <InChI-Key>
VZQGOJYNWVCAKC-UHFFFAOYSA-N

>  <Molecular Formula>
C20H15N5O5S

>  <Monoisotopic Mass>
437.079390

>  <Druglikeness>
-7.8995

$$$$
Compound 576
Actelion Java MolfileCreator 1.0

 20 22  0  0  0  0  0  0  0  0999 V2000
    0.0000   -0.0000   -0.0000 Br  0  0  0  0  0  0  0  0  0  0  0  0
   -0.0119    1.5050   -0.0000 C   0  0  0  0  0  0  0  0  0  0  0  0
   -1.3154    2.2635   -0.0000 C   0  0  0  0  0  0  0  0  0  0  0  0
    1.2799    2.2635   -0.0000 C   0  0  0  0  0  0  0  0  0  0  0  0
   -2.7493    1.8131   -0.0000 N   0  0  0  0  0  0  0  0  0  0  0  0
   -1.3273    3.7685   -0.0000 C   0  0  0  0  0  0  0  0  0  0  0  0
    1.2680    3.7804   -0.0000 N   0  0  0  0  0  0  0  0  0  0  0  0
   -3.6381    3.0338   -0.0000 C   0  0  0  0  0  0  0  0  0  0  0  0
   -3.6263    0.6044   -0.0000 C   0  0  0  0  0  0  0  0  0  0  0  0
   -2.7612    4.2425   -0.0000 N   0  0  0  0  0  0  0  0  0  0  0  0
   -0.0474    4.5388   -0.0000 C   0  0  0  0  0  0  0  0  0  0  0  0
   -3.1523   -0.7940   -0.0000 C   0  0  0  0  0  0  0  0  0  0  0  0
   -5.1313    0.5925   -0.0000 C   0  0  0  0  0  0  0  0  0  0  0  0
   -0.0593    6.0438   -0.0000 N   0  0  0  0  0  0  0  0  0  0  0  0
   -1.7302   -1.2206   -0.0000 O   0  0  0  0  0  0  0  0  0  0  0  0
   -4.3610   -1.6828   -0.0000 C   0  0  0  0  0  0  0  0  0  0  0  0
   -5.5817   -0.8295   -0.0000 C   0  0  0  0  0  0  0  0  0  0  0  0
   -4.3492   -3.1641   -0.0000 O   0  0  0  0  0  0  0  0  0  0  0  0
   -7.0037   -1.3036   -0.0000 C   0  0  0  0  0  0  0  0  0  0  0  0
   -8.1414   -0.3081   -0.0000 O   0  0  0  0  0  0  0  0  0  0  0  0
  1  2  1  0  0  0  0
  2  3  2  0  0  0  0
  2  4  1  0  0  0  0
  3  5  1  0  0  0  0
  3  6  1  0  0  0  0
  4  7  2  0  0  0  0
  5  8  1  0  0  0  0
  9  5  1  1  0  0  0
  6 10  1  0  0  0  0
  6 11  2  0  0  0  0
  9 12  1  0  0  0  0
  9 13  1  0  0  0  0
 11 14  1  0  0  0  0
 12 15  1  6  0  0  0
 12 16  1  0  0  0  0
 13 17  1  0  0  0  0
 16 18  1  6  0  0  0
 17 19  1  1  0  0  0
 19 20  1  0  0  0  0
  7 11  1  0  0  0  0
  8 10  2  0  0  0  0
 16 17  1  0  0  0  0
M  END
>  <MolRegNo>
1354925

>  <m>


>  <Value>
0

>  <Unit>


>  <Type>
Activity

>  <Ligand Efficiency>


>  <Binding Efficiency>


>  <Surface Efficiency>


>  <Assay Index>
663878

>  <Assay Category>


>  <Assay Organism>
SARS coronavirus

>  <Target ID>
100499

>  <Target Name>
SARS coronavirus

>  <Target Organism>
SARS coronavirus

>  <Target Description>
Target is a complete organism

>  <Sequence Accession>


>  <Reference>
Bioorg. Med. Chem. Lett. 22 (16), 5182-5184 (2012)

>  <Pubmed ID>
22795626

>  <DOI>
10.1016/j.bmcl.2012.06.075

>  <InChI-Key>
WCQHGFZOJHBINT-FODUQWCDSA-N

>  <Molecular Formula>
C12H15N4O3Br

>  <Monoisotopic Mass>
342.032752

>  <Druglikeness>
-3.1083

$$$$
Compound 577
Actelion Java MolfileCreator 1.0

 41 42  0  0  1  0  0  0  0  0999 V2000
    0.0000   -0.0000   -0.0000 O   0  0  0  0  0  0  0  0  0  0  0  0
    1.1109   -0.9809   -0.0000 C   0  0  0  0  0  0  0  0  0  0  0  0
    2.5645   -0.6500   -0.0000 N   0  0  0  0  0  0  0  0  0  0  0  0
    0.9573   -2.4581   -0.0000 C   0  0  0  0  0  0  0  0  0  0  0  0
    3.3090   -1.9382   -0.0000 C   0  0  0  0  0  0  0  0  0  0  0  0
    2.3163   -3.0490   -0.0000 C   0  0  0  0  0  0  0  0  0  0  0  0
   -0.3545   -3.2027   -0.0000 C   0  0  0  0  0  0  0  0  0  0  0  0
   -0.3664   -4.6917   -0.0000 C   0  0  0  0  0  0  0  0  0  0  0  0
   -1.6782   -5.4363   -0.0000 N   0  0  0  0  0  0  0  0  0  0  0  0
    0.9218   -5.4245   -0.0000 C   0  0  0  0  0  0  0  0  0  0  0  0
   -2.9900   -4.6799   -0.0000 C   0  0  0  0  0  0  0  0  0  0  0  0
    2.2100   -4.6563   -0.0000 C   0  0  0  0  0  0  0  0  0  0  0  0
   -3.0018   -3.1672   -0.0000 O   0  0  0  0  0  0  0  0  0  0  0  0
   -4.3018   -5.4245   -0.0000 C   0  0  0  0  0  0  0  0  0  0  0  0
    3.4981   -5.3890   -0.0000 C   0  0  0  0  0  0  0  0  0  0  0  0
   -5.6135   -4.6681   -0.0000 N   0  0  0  0  0  0  0  0  0  0  0  0
   -4.3136   -6.9135   -0.0000 C   0  0  0  0  0  0  0  0  0  0  0  0
    3.4863   -6.8781   -0.0000 O   0  0  0  0  0  0  0  0  0  0  0  0
    4.7863   -4.6208   -0.0000 O   0  0  0  0  0  0  0  0  0  0  0  0
   -6.9253   -5.4126   -0.0000 C   0  0  0  0  0  0  0  0  0  0  0  0
   -3.0254   -7.6462   -0.0000 C   0  0  0  0  0  0  0  0  0  0  0  0
    6.0745   -5.3536   -0.0000 C   0  0  0  0  0  0  0  0  0  0  0  0
   -6.9372   -6.9017   -0.0000 O   0  0  0  0  0  0  0  0  0  0  0  0
   -8.2371   -4.6563   -0.0000 C   0  0  0  0  0  0  0  0  0  0  0  0
   -3.0372   -9.1353   -0.0000 C   0  0  0  0  0  0  0  0  0  0  0  0
   -1.7372   -6.8781   -0.0000 C   0  0  0  0  0  0  0  0  0  0  0  0
    7.3626   -4.5854   -0.0000 C   0  0  0  0  0  0  0  0  0  0  0  0
   -9.5489   -5.4008   -0.0000 N   0  0  0  0  0  0  0  0  0  0  0  0
   -8.2490   -3.1436   -0.0000 C   0  0  0  0  0  0  0  0  0  0  0  0
  -10.8607   -4.6445   -0.0000 C   0  0  0  0  0  0  0  0  0  0  0  0
   -9.5608   -2.3872   -0.0000 C   0  0  0  0  0  0  0  0  0  0  0  0
   -6.9608   -2.3754   -0.0000 C   0  0  0  0  0  0  0  0  0  0  0  0
  -10.8726   -3.1318   -0.0000 O   0  0  0  0  0  0  0  0  0  0  0  0
  -12.1725   -5.3890   -0.0000 O   0  0  0  0  0  0  0  0  0  0  0  0
  -13.4843   -4.6327   -0.0000 C   0  0  0  0  0  0  0  0  0  0  0  0
  -14.7961   -5.3772   -0.0000 C   0  0  0  0  0  0  0  0  0  0  0  0
  -16.1079   -4.6090   -0.0000 C   0  0  0  0  0  0  0  0  0  0  0  0
  -14.7961   -6.8544   -0.0000 C   0  0  0  0  0  0  0  0  0  0  0  0
  -17.4197   -5.3536   -0.0000 C   0  0  0  0  0  0  0  0  0  0  0  0
  -16.0961   -7.5990   -0.0000 C   0  0  0  0  0  0  0  0  0  0  0  0
  -17.4315   -6.8426   -0.0000 C   0  0  0  0  0  0  0  0  0  0  0  0
  1  2  2  0  0  0  0
  2  3  1  0  0  0  0
  2  4  1  0  0  0  0
  3  5  1  0  0  0  0
  4  6  1  0  0  0  0
  4  7  1  1  0  0  0
  7  8  1  0  0  0  0
  8  9  1  1  0  0  0
  8 10  1  0  0  0  0
  9 11  1  0  0  0  0
 10 12  2  0  0  0  0
 11 13  2  0  0  0  0
 11 14  1  0  0  0  0
 12 15  1  0  0  0  0
 14 16  1  6  0  0  0
 14 17  1  0  0  0  0
 15 18  2  0  0  0  0
 15 19  1  0  0  0  0
 16 20  1  0  0  0  0
 17 21  1  0  0  0  0
 19 22  1  0  0  0  0
 20 23  2  0  0  0  0
 20 24  1  0  0  0  0
 21 25  1  0  0  0  0
 21 26  1  0  0  0  0
 22 27  1  0  0  0  0
 24 28  1  1  0  0  0
 24 29  1  0  0  0  0
 28 30  1  0  0  0  0
 29 31  1  0  0  0  0
 29 32  1  0  0  0  0
 30 33  2  0  0  0  0
 30 34  1  0  0  0  0
 34 35  1  0  0  0  0
 35 36  1  0  0  0  0
 36 37  2  0  0  0  0
 36 38  1  0  0  0  0
 37 39  1  0  0  0  0
 38 40  2  0  0  0  0
 39 41  2  0  0  0  0
  5  6  1  0  0  0  0
 40 41  1  0  0  0  0
M  END
>  <MolRegNo>
356122

>  <m>
=

>  <Value>
660

>  <Unit>
nM

>  <Type>
Ki

>  <Ligand Efficiency>
0.21

>  <Binding Efficiency>
10.79

>  <Surface Efficiency>
4.07

>  <Assay Index>
265844

>  <Assay Category>


>  <Assay Organism>
SARS coronavirus

>  <Target ID>
20012

>  <Target Name>
SARS coronavirus 3C-like proteinase

>  <Target Organism>
SARS coronavirus

>  <Target Description>
Target is a single protein chain

>  <Sequence Accession>
P0C6U8

>  <Reference>
J. Med. Chem. 49 (16), 4971-4980 (2006)

>  <Pubmed ID>
16884309

>  <DOI>
10.1021/jm0603926

>  <InChI-Key>
WDMSWWUPIMEGNZ-UHCVVMIDSA-N

>  <Molecular Formula>
C30H44N4O7

>  <Monoisotopic Mass>
572.321001

>  <Druglikeness>
-21.386

$$$$
Compound 578
Actelion Java MolfileCreator 1.0

 25 27  0  0  0  0  0  0  0  0999 V2000
    0.0000   -0.0000   -0.0000 Cl  0  0  0  0  0  0  0  0  0  0  0  0
   -1.3028   -0.7343   -0.0000 C   0  0  0  0  0  0  0  0  0  0  0  0
   -2.6057    0.0237   -0.0000 C   0  0  0  0  0  0  0  0  0  0  0  0
   -1.3147   -2.2267   -0.0000 C   0  0  0  0  0  0  0  0  0  0  0  0
   -3.9085   -0.7106   -0.0000 C   0  0  0  0  0  0  0  0  0  0  0  0
   -2.6175    1.5279   -0.0000 C   0  0  0  0  0  0  0  0  0  0  0  0
   -2.6294   -2.9610   -0.0000 C   0  0  0  0  0  0  0  0  0  0  0  0
   -5.2114    0.0474   -0.0000 F   0  0  0  0  0  0  0  0  0  0  0  0
   -3.9204   -2.1912   -0.0000 C   0  0  0  0  0  0  0  0  0  0  0  0
   -1.4331    2.4162   -0.0000 S   0  0  0  0  0  0  0  0  0  0  0  0
   -3.8493    2.4043   -0.0000 N   0  0  0  0  0  0  0  0  0  0  0  0
   -1.9069    3.8493   -0.0000 C   0  0  0  0  0  0  0  0  0  0  0  0
   -5.3535    2.4043   -0.0000 C   0  0  0  0  0  0  0  0  0  0  0  0
   -3.3992    3.8375   -0.0000 C   0  0  0  0  0  0  0  0  0  0  0  0
   -6.0997    1.1133   -0.0000 N   0  0  0  0  0  0  0  0  0  0  0  0
   -6.1115    3.7072   -0.0000 N   0  0  0  0  0  0  0  0  0  0  0  0
   -4.2876    5.0574   -0.0000 O   0  0  0  0  0  0  0  0  0  0  0  0
   -7.6039    1.1133   -0.0000 C   0  0  0  0  0  0  0  0  0  0  0  0
   -7.6157    3.7072   -0.0000 C   0  0  0  0  0  0  0  0  0  0  0  0
   -8.3738    2.4162   -0.0000 C   0  0  0  0  0  0  0  0  0  0  0  0
   -8.3501   -0.1777   -0.0000 C   0  0  0  0  0  0  0  0  0  0  0  0
   -8.3856    5.0100   -0.0000 C   0  0  0  0  0  0  0  0  0  0  0  0
   -9.1792   -1.4094   -0.0000 F   0  0  0  0  0  0  0  0  0  0  0  0
   -7.0828   -0.9475   -0.0000 F   0  0  0  0  0  0  0  0  0  0  0  0
   -9.6411    0.6040   -0.0000 F   0  0  0  0  0  0  0  0  0  0  0  0
  1  2  1  0  0  0  0
  2  3  2  0  0  0  0
  2  4  1  0  0  0  0
  3  5  1  0  0  0  0
  3  6  1  0  0  0  0
  4  7  2  0  0  0  0
  5  8  1  0  0  0  0
  5  9  2  0  0  0  0
  6 10  1  0  0  0  0
  6 11  1  0  0  0  0
 10 12  1  0  0  0  0
 11 13  1  0  0  0  0
 11 14  1  0  0  0  0
 13 15  2  0  0  0  0
 13 16  1  0  0  0  0
 14 17  2  0  0  0  0
 15 18  1  0  0  0  0
 16 19  2  0  0  0  0
 18 20  2  0  0  0  0
 18 21  1  0  0  0  0
 19 22  1  0  0  0  0
 21 23  1  0  0  0  0
 21 24  1  0  0  0  0
 21 25  1  0  0  0  0
  7  9  1  0  0  0  0
 12 14  1  0  0  0  0
 19 20  1  0  0  0  0
M  END
>  <MolRegNo>
379279

>  <m>
<=

>  <Value>
50

>  <Unit>
%

>  <Type>
Inhibition

>  <Ligand Efficiency>


>  <Binding Efficiency>


>  <Surface Efficiency>


>  <Assay Index>
406904

>  <Assay Category>


>  <Assay Organism>
SARS coronavirus

>  <Target ID>
101075

>  <Target Name>
Replicase polyprotein 1ab

>  <Target Organism>
SARS coronavirus

>  <Target Description>
Target is a single protein chain

>  <Sequence Accession>
P0C6X7

>  <Reference>
Bioorg. Med. Chem. Lett. 18 (23), 6110-6114 (2008)

>  <Pubmed ID>
18947995

>  <DOI>
10.1016/j.bmcl.2008.10.023

>  <InChI-Key>
WFEAKLOOJIOHQY-UHFFFAOYSA-N

>  <Molecular Formula>
C15H10N3OClF4S

>  <Monoisotopic Mass>
391.016921

>  <Druglikeness>
-4.4033

$$$$
Compound 579
Actelion Java MolfileCreator 1.0

 31 33  0  0  0  0  0  0  0  0999 V2000
    0.0000   -0.0000   -0.0000 O   0  0  0  0  0  0  0  0  0  0  0  0
   -0.0123   -1.2432   -0.0000 C   0  0  0  0  0  0  0  0  0  0  0  0
    1.3294   -2.0064   -0.0000 O   0  0  0  0  0  0  0  0  0  0  0  0
   -1.3786   -2.0187   -0.0000 N   0  0  0  0  0  0  0  0  0  0  0  0
    2.6711   -1.2063   -0.0000 C   0  0  0  0  0  0  0  0  0  0  0  0
   -2.7450   -1.2309   -0.0000 C   0  0  0  0  0  0  0  0  0  0  0  0
    3.7420   -1.8095   -0.0000 C   0  0  0  0  0  0  0  0  0  0  0  0
    3.7420   -0.5662   -0.0000 C   0  0  0  0  0  0  0  0  0  0  0  0
    2.6588    0.0615   -0.0000 C   0  0  0  0  0  0  0  0  0  0  0  0
   -4.1113   -2.0064   -0.0000 C   0  0  0  0  0  0  0  0  0  0  0  0
   -5.4776   -1.2186   -0.0000 C   0  0  0  0  0  0  0  0  0  0  0  0
   -4.1113   -3.5574   -0.0000 C   0  0  0  0  0  0  0  0  0  0  0  0
   -6.8439   -1.9941   -0.0000 C   0  0  0  0  0  0  0  0  0  0  0  0
   -5.4776   -4.3328   -0.0000 C   0  0  0  0  0  0  0  0  0  0  0  0
   -6.8439   -3.5451   -0.0000 C   0  0  0  0  0  0  0  0  0  0  0  0
   -8.2102   -1.2063   -0.0000 C   0  0  0  0  0  0  0  0  0  0  0  0
   -7.9394   -4.1605   -0.0000 C   0  0  0  0  0  0  0  0  0  0  0  0
   -9.3058   -1.8218   -0.0000 O   0  0  0  0  0  0  0  0  0  0  0  0
   -8.2349    0.3693   -0.0000 N   0  0  0  0  0  0  0  0  0  0  0  0
   -9.6012    1.1571   -0.0000 C   0  0  0  0  0  0  0  0  0  0  0  0
   -9.6258    2.7326   -0.0000 C   0  0  0  0  0  0  0  0  0  0  0  0
  -10.6967    0.5416   -0.0000 C   0  0  0  0  0  0  0  0  0  0  0  0
   -8.2841    3.5204   -0.0000 C   0  0  0  0  0  0  0  0  0  0  0  0
  -11.0044    3.5204   -0.0000 C   0  0  0  0  0  0  0  0  0  0  0  0
   -8.2964    5.0960   -0.0000 C   0  0  0  0  0  0  0  0  0  0  0  0
   -6.9424    2.7573   -0.0000 C   0  0  0  0  0  0  0  0  0  0  0  0
  -11.0167    5.0960   -0.0000 C   0  0  0  0  0  0  0  0  0  0  0  0
   -9.6627    5.8838   -0.0000 C   0  0  0  0  0  0  0  0  0  0  0  0
   -6.9547    5.8838   -0.0000 C   0  0  0  0  0  0  0  0  0  0  0  0
   -5.6007    3.5451   -0.0000 C   0  0  0  0  0  0  0  0  0  0  0  0
   -5.6130    5.1206   -0.0000 C   0  0  0  0  0  0  0  0  0  0  0  0
  1  2  2  0  0  0  0
  2  3  1  0  0  0  0
  2  4  1  0  0  0  0
  3  5  1  0  0  0  0
  4  6  1  0  0  0  0
  5  7  1  0  0  0  0
  5  8  1  0  0  0  0
  5  9  1  0  0  0  0
  6 10  1  0  0  0  0
 10 11  2  0  0  0  0
 10 12  1  0  0  0  0
 11 13  1  0  0  0  0
 12 14  2  0  0  0  0
 13 15  2  0  0  0  0
 13 16  1  0  0  0  0
 15 17  1  0  0  0  0
 16 18  2  0  0  0  0
 16 19  1  0  0  0  0
 20 19  1  1  0  0  0
 20 21  1  0  0  0  0
 20 22  1  0  0  0  0
 21 23  1  0  0  0  0
 21 24  2  0  0  0  0
 23 25  1  0  0  0  0
 23 26  2  0  0  0  0
 24 27  1  0  0  0  0
 25 28  1  0  0  0  0
 25 29  2  0  0  0  0
 26 30  1  0  0  0  0
 29 31  1  0  0  0  0
 14 15  1  0  0  0  0
 27 28  2  0  0  0  0
 30 31  2  0  0  0  0
M  END
>  <MolRegNo>
562198

>  <m>


>  <Value>
0

>  <Unit>


>  <Type>
EC50

>  <Ligand Efficiency>


>  <Binding Efficiency>


>  <Surface Efficiency>


>  <Assay Index>
425462

>  <Assay Category>


>  <Assay Organism>
SARS coronavirus

>  <Target ID>
100499

>  <Target Name>
SARS coronavirus

>  <Target Organism>
SARS coronavirus

>  <Target Description>
Target is a complete organism

>  <Sequence Accession>


>  <Reference>
J. Med. Chem. 52 (16), 5228-5240 (2009)

>  <Pubmed ID>
19645480

>  <DOI>
10.1021/jm900611t

>  <InChI-Key>
WFKRNMAWGCVMCU-SFHVURJKSA-N

>  <Molecular Formula>
C26H30N2O3

>  <Monoisotopic Mass>
418.225643

>  <Druglikeness>
-46.955

$$$$
Compound 580
Actelion Java MolfileCreator 1.0

 22 25  0  0  0  0  0  0  0  0999 V2000
    0.0000   -0.0000   -0.0000 I   0  0  0  0  0  0  0  0  0  0  0  0
    1.2864   -0.7385   -0.0000 C   0  0  0  0  0  0  0  0  0  0  0  0
    2.5727    0.0238   -0.0000 C   0  0  0  0  0  0  0  0  0  0  0  0
    1.2745   -2.2392   -0.0000 C   0  0  0  0  0  0  0  0  0  0  0  0
    3.8710   -0.7147   -0.0000 C   0  0  0  0  0  0  0  0  0  0  0  0
    2.5608   -2.9777   -0.0000 C   0  0  0  0  0  0  0  0  0  0  0  0
    5.2884   -0.2263   -0.0000 C   0  0  0  0  0  0  0  0  0  0  0  0
    3.8591   -2.2035   -0.0000 C   0  0  0  0  0  0  0  0  0  0  0  0
    5.7410    1.2268   -0.0000 O   0  0  0  0  0  0  0  0  0  0  0  0
    6.1698   -1.4412   -0.0000 C   0  0  0  0  0  0  0  0  0  0  0  0
    5.2765   -2.6561   -0.0000 N   0  0  0  0  0  0  0  0  0  0  0  0
    7.6587   -1.4293   -0.0000 O   0  0  0  0  0  0  0  0  0  0  0  0
    5.7291   -4.0854   -0.0000 C   0  0  0  0  0  0  0  0  0  0  0  0
    4.7167   -5.1931   -0.0000 C   0  0  0  0  0  0  0  0  0  0  0  0
    5.0264   -6.6463   -0.0000 O   0  0  0  0  0  0  0  0  0  0  0  0
    3.2159   -5.0145   -0.0000 C   0  0  0  0  0  0  0  0  0  0  0  0
    3.7162   -7.3847   -0.0000 C   0  0  0  0  0  0  0  0  0  0  0  0
    2.5966   -6.3842   -0.0000 C   0  0  0  0  0  0  0  0  0  0  0  0
    3.3827   -8.8379   -0.0000 C   0  0  0  0  0  0  0  0  0  0  0  0
    1.1434   -6.8249   -0.0000 C   0  0  0  0  0  0  0  0  0  0  0  0
    1.9534   -9.3024   -0.0000 C   0  0  0  0  0  0  0  0  0  0  0  0
    0.8218   -8.2900   -0.0000 C   0  0  0  0  0  0  0  0  0  0  0  0
  1  2  1  0  0  0  0
  2  3  2  0  0  0  0
  2  4  1  0  0  0  0
  3  5  1  0  0  0  0
  4  6  2  0  0  0  0
  5  7  1  0  0  0  0
  5  8  2  0  0  0  0
  7  9  2  0  0  0  0
  7 10  1  0  0  0  0
  8 11  1  0  0  0  0
 10 12  2  0  0  0  0
 11 13  1  0  0  0  0
 13 14  1  0  0  0  0
 14 15  1  0  0  0  0
 14 16  2  0  0  0  0
 15 17  1  0  0  0  0
 16 18  1  0  0  0  0
 17 19  1  0  0  0  0
 18 20  1  0  0  0  0
 19 21  2  0  0  0  0
 20 22  2  0  0  0  0
  6  8  1  0  0  0  0
 10 11  1  0  0  0  0
 17 18  2  0  0  0  0
 21 22  1  0  0  0  0
M  END
>  <MolRegNo>
316223

>  <m>
=

>  <Value>
13

>  <Unit>
%

>  <Type>
Inhibition

>  <Ligand Efficiency>


>  <Binding Efficiency>


>  <Surface Efficiency>


>  <Assay Index>
240611

>  <Assay Category>


>  <Assay Organism>
SARS coronavirus

>  <Target ID>
20012

>  <Target Name>
SARS coronavirus 3C-like proteinase

>  <Target Organism>
SARS coronavirus

>  <Target Description>
Target is a single protein chain

>  <Sequence Accession>
P0C6U8

>  <Reference>
Bioorg. Med. Chem. Lett. 15 (12), 3058-3062 (2005)

>  <Pubmed ID>
15896959

>  <DOI>
10.1016/j.bmcl.2005.04.027

>  <InChI-Key>
WGQCKGKLMRHSEQ-UHFFFAOYSA-N

>  <Molecular Formula>
C17H10NO3I

>  <Monoisotopic Mass>
402.970542

>  <Druglikeness>
0.68504

$$$$
Compound 581
Actelion Java MolfileCreator 1.0

 21 22  0  0  0  0  0  0  0  0999 V2000
    0.0000   -0.0000   -0.0000 Br  0  0  0  0  0  0  0  0  0  0  0  0
  -10.4428   -2.7531   -0.0000 Cl  0  0  0  0  0  0  0  0  0  0  0  0
   -9.0188   -2.2784   -0.0000 C   0  0  0  0  0  0  0  0  0  0  0  0
   -7.8084   -3.1566   -0.0000 S   0  0  0  0  0  0  0  0  0  0  0  0
   -8.5678   -0.8307   -0.0000 C   0  0  0  0  0  0  0  0  0  0  0  0
   -6.5980   -2.2666   -0.0000 C   0  0  0  0  0  0  0  0  0  0  0  0
   -7.0726   -0.8188   -0.0000 C   0  0  0  0  0  0  0  0  0  0  0  0
   -5.1739   -2.7294   -0.0000 C   0  0  0  0  0  0  0  0  0  0  0  0
   -3.9754   -1.8275   -0.0000 N   0  0  0  0  0  0  0  0  0  0  0  0
   -4.7349   -4.1534   -0.0000 C   0  0  0  0  0  0  0  0  0  0  0  0
   -2.7768   -2.7056   -0.0000 C   0  0  0  0  0  0  0  0  0  0  0  0
   -3.2396   -4.1534   -0.0000 S   0  0  0  0  0  0  0  0  0  0  0  0
   -1.3528   -2.2310   -0.0000 C   0  0  0  0  0  0  0  0  0  0  0  0
   -0.2492   -3.2278   -0.0000 S   0  0  0  0  0  0  0  0  0  0  0  0
    0.7832   -2.1242   -0.0000 O   0  0  0  0  0  0  0  0  0  0  0  0
   -1.3054   -4.3077   -0.0000 O   0  0  0  0  0  0  0  0  0  0  0  0
    0.8069   -4.2839   -0.0000 C   0  0  0  0  0  0  0  0  0  0  0  0
    2.2903   -4.0347   -0.0000 S   0  0  0  0  0  0  0  0  0  0  0  0
    0.5696   -5.7554   -0.0000 C   0  0  0  0  0  0  0  0  0  0  0  0
    2.9548   -5.3638   -0.0000 C   0  0  0  0  0  0  0  0  0  0  0  0
    1.8987   -6.4318   -0.0000 C   0  0  0  0  0  0  0  0  0  0  0  0
  2  3  1  0  0  0  0
  3  4  1  0  0  0  0
  3  5  2  0  0  0  0
  4  6  1  0  0  0  0
  5  7  1  0  0  0  0
  6  8  1  0  0  0  0
  8  9  1  0  0  0  0
  8 10  2  0  0  0  0
  9 11  1  0  0  0  0
 10 12  1  0  0  0  0
 11 13  1  0  0  0  0
 13 14  1  0  0  0  0
 14 15  2  0  0  0  0
 14 16  2  0  0  0  0
 14 17  1  0  0  0  0
 17 18  1  0  0  0  0
 17 19  2  0  0  0  0
 18 20  1  0  0  0  0
 19 21  1  0  0  0  0
  6  7  2  0  0  0  0
 11 12  2  0  0  0  0
 20 21  2  0  0  0  0
M  CHG  2   1  -1  12   1
M  END
>  <MolRegNo>
356372

>  <m>
=

>  <Value>
18000

>  <Unit>
nM

>  <Type>
IC50

>  <Ligand Efficiency>
0.32

>  <Binding Efficiency>
13.07

>  <Surface Efficiency>
9.50

>  <Assay Index>
266027

>  <Assay Category>


>  <Assay Organism>
SARS coronavirus

>  <Target ID>
20012

>  <Target Name>
SARS coronavirus 3C-like proteinase

>  <Target Organism>
SARS coronavirus

>  <Target Description>
Target is a single protein chain

>  <Sequence Accession>
P0C6U8

>  <Reference>
J. Med. Chem. 49 (17), 5154-5161 (2006)

>  <Pubmed ID>
16913704

>  <DOI>
10.1021/jm060207o

>  <InChI-Key>
WOMURSKAGGPFQJ-UHFFFAOYSA-M

>  <Molecular Formula>
Br.C12H9NO2ClS4

>  <Monoisotopic Mass>
361.920461

>  <Druglikeness>
-0.7535

$$$$
Compound 582
Actelion Java MolfileCreator 1.0

 31 34  0  0  0  0  0  0  0  0999 V2000
    0.0000   -0.0000   -0.0000 O   0  0  0  0  0  0  0  0  0  0  0  0
   -0.0119   -1.4874   -0.0000 C   0  0  0  0  0  0  0  0  0  0  0  0
    1.2732   -2.2252   -0.0000 N   0  0  0  0  0  0  0  0  0  0  0  0
   -1.3208   -2.2252   -0.0000 C   0  0  0  0  0  0  0  0  0  0  0  0
    2.5584   -1.4636   -0.0000 C   0  0  0  0  0  0  0  0  0  0  0  0
   -1.3327   -3.7126   -0.0000 C   0  0  0  0  0  0  0  0  0  0  0  0
   -2.6417   -1.4636   -0.0000 C   0  0  0  0  0  0  0  0  0  0  0  0
    3.8435   -2.2014   -0.0000 C   0  0  0  0  0  0  0  0  0  0  0  0
    2.5465    0.0476   -0.0000 C   0  0  0  0  0  0  0  0  0  0  0  0
   -2.6417   -4.4504   -0.0000 C   0  0  0  0  0  0  0  0  0  0  0  0
   -3.9625   -2.2014   -0.0000 C   0  0  0  0  0  0  0  0  0  0  0  0
    3.8316   -3.6888   -0.0000 C   0  0  0  0  0  0  0  0  0  0  0  0
    5.1286   -1.4398   -0.0000 C   0  0  0  0  0  0  0  0  0  0  0  0
    3.8316    0.8092   -0.0000 O   0  0  0  0  0  0  0  0  0  0  0  0
   -3.9625   -3.6888   -0.0000 N   0  0  0  0  0  0  0  0  0  0  0  0
    5.1167   -4.4266   -0.0000 C   0  0  0  0  0  0  0  0  0  0  0  0
    6.4138   -2.1657   -0.0000 C   0  0  0  0  0  0  0  0  0  0  0  0
    3.8197    2.3204   -0.0000 C   0  0  0  0  0  0  0  0  0  0  0  0
   -5.2714   -4.4385   -0.0000 C   0  0  0  0  0  0  0  0  0  0  0  0
    6.4019   -3.6531   -0.0000 C   0  0  0  0  0  0  0  0  0  0  0  0
   -5.2714   -5.9259   -0.0000 C   0  0  0  0  0  0  0  0  0  0  0  0
   -6.5923   -3.6769   -0.0000 C   0  0  0  0  0  0  0  0  0  0  0  0
   -6.5804   -6.6637   -0.0000 C   0  0  0  0  0  0  0  0  0  0  0  0
   -3.9744   -6.6518   -0.0000 C   0  0  0  0  0  0  0  0  0  0  0  0
   -6.5923   -8.1630   -0.0000 C   0  0  0  0  0  0  0  0  0  0  0  0
   -7.8893   -5.9021   -0.0000 C   0  0  0  0  0  0  0  0  0  0  0  0
   -3.9744   -8.1511   -0.0000 C   0  0  0  0  0  0  0  0  0  0  0  0
   -5.3071   -8.9007   -0.0000 C   0  0  0  0  0  0  0  0  0  0  0  0
   -7.9012   -8.9126   -0.0000 C   0  0  0  0  0  0  0  0  0  0  0  0
   -9.1982   -6.6399   -0.0000 C   0  0  0  0  0  0  0  0  0  0  0  0
   -9.2101   -8.1511   -0.0000 C   0  0  0  0  0  0  0  0  0  0  0  0
  1  2  2  0  0  0  0
  2  3  1  0  0  0  0
  2  4  1  0  0  0  0
  5  3  1  1  0  0  0
  4  6  1  0  0  0  0
  4  7  1  0  0  0  0
  5  8  1  0  0  0  0
  5  9  1  0  0  0  0
  6 10  1  0  0  0  0
  7 11  1  0  0  0  0
  8 12  2  0  0  0  0
  8 13  1  0  0  0  0
  9 14  1  0  0  0  0
 10 15  1  0  0  0  0
 12 16  1  0  0  0  0
 13 17  2  0  0  0  0
 14 18  1  0  0  0  0
 19 15  1  6  0  0  0
 16 20  2  0  0  0  0
 19 21  1  0  0  0  0
 19 22  1  0  0  0  0
 21 23  1  0  0  0  0
 21 24  2  0  0  0  0
 23 25  1  0  0  0  0
 23 26  2  0  0  0  0
 24 27  1  0  0  0  0
 25 28  1  0  0  0  0
 25 29  2  0  0  0  0
 26 30  1  0  0  0  0
 29 31  1  0  0  0  0
 11 15  1  0  0  0  0
 17 20  1  0  0  0  0
 27 28  2  0  0  0  0
 30 31  2  0  0  0  0
M  END
>  <MolRegNo>
1732311

>  <m>
=

>  <Value>
11700

>  <Unit>
nM

>  <Type>
EC50

>  <Ligand Efficiency>


>  <Binding Efficiency>


>  <Surface Efficiency>


>  <Assay Index>
843084

>  <Assay Category>


>  <Assay Organism>
SARS coronavirus

>  <Target ID>
100499

>  <Target Name>
SARS coronavirus

>  <Target Organism>
SARS coronavirus

>  <Target Description>
Target is a complete organism

>  <Sequence Accession>


>  <Reference>
J. Med. Chem. 57 (6), 2393-2412 (2014)

>  <Pubmed ID>
24568342

>  <DOI>
10.1021/jm401712t

>  <InChI-Key>
WOZLZEADGGHBFH-FNZWTVRRSA-N

>  <Molecular Formula>
C27H32N2O2

>  <Monoisotopic Mass>
416.246378

>  <Druglikeness>
6.7539

$$$$
Compound 583
Actelion Java MolfileCreator 1.0

  7  7  0  0  0  0  0  0  0  0999 V2000
    0.0000   -0.0000   -0.0000 S   0  0  0  0  0  0  0  0  0  0  0  0
   -0.4717    1.4388   -0.0000 C   0  0  0  0  0  0  0  0  0  0  0  0
    1.4860    0.0118   -0.0000 C   0  0  0  0  0  0  0  0  0  0  0  0
    0.7194    2.3351   -0.0000 N   0  0  0  0  0  0  0  0  0  0  0  0
    1.9459    1.4506   -0.0000 C   0  0  0  0  0  0  0  0  0  0  0  0
    3.3494    1.9223   -0.0000 C   0  0  0  0  0  0  0  0  0  0  0  0
    3.6560    3.3965   -0.0000 O   0  0  0  0  0  0  0  0  0  0  0  0
  1  2  1  0  0  0  0
  1  3  1  0  0  0  0
  2  4  2  0  0  0  0
  3  5  2  0  0  0  0
  5  6  1  0  0  0  0
  6  7  2  0  0  0  0
  4  5  1  0  0  0  0
M  END
>  <MolRegNo>
371757

>  <m>
=

>  <Value>
36

>  <Unit>
%

>  <Type>
Inhibition

>  <Ligand Efficiency>


>  <Binding Efficiency>


>  <Surface Efficiency>


>  <Assay Index>
278390

>  <Assay Category>


>  <Assay Organism>
SARS coronavirus

>  <Target ID>
20012

>  <Target Name>
SARS coronavirus 3C-like proteinase

>  <Target Organism>
SARS coronavirus

>  <Target Description>
Target is a single protein chain

>  <Sequence Accession>
P0C6U8

>  <Reference>
J. Med. Chem. 50 (8), 1850-1864 (2007)

>  <Pubmed ID>
17381079

>  <DOI>
10.1021/jm061425k

>  <InChI-Key>
WRFKSVINLIQRKF-UHFFFAOYSA-N

>  <Molecular Formula>
C4H3NOS

>  <Monoisotopic Mass>
112.993534

>  <Druglikeness>
-1.6797

$$$$
Compound 584
Actelion Java MolfileCreator 1.0

 32 35  0  0  0  0  0  0  0  0999 V2000
    0.0000   -0.0000   -0.0000 Cl  0  0  0  0  0  0  0  0  0  0  0  0
    1.2886   -0.7398   -0.0000 C   0  0  0  0  0  0  0  0  0  0  0  0
    1.2767   -2.2432   -0.0000 C   0  0  0  0  0  0  0  0  0  0  0  0
    2.5772    0.0239   -0.0000 C   0  0  0  0  0  0  0  0  0  0  0  0
    2.5653   -2.9829   -0.0000 C   0  0  0  0  0  0  0  0  0  0  0  0
    3.8778   -0.7159   -0.0000 C   0  0  0  0  0  0  0  0  0  0  0  0
    3.8659   -2.2193   -0.0000 C   0  0  0  0  0  0  0  0  0  0  0  0
    5.1545   -2.9591   -0.0000 N   0  0  0  0  0  0  0  0  0  0  0  0
    6.4431   -2.1954   -0.0000 C   0  0  0  0  0  0  0  0  0  0  0  0
    6.4312   -0.6801   -0.0000 O   0  0  0  0  0  0  0  0  0  0  0  0
    7.7317   -2.9352   -0.0000 C   0  0  0  0  0  0  0  0  0  0  0  0
    9.0203   -2.1716   -0.0000 S   0  0  0  0  0  0  0  0  0  0  0  0
   10.3090   -2.9113   -0.0000 C   0  0  0  0  0  0  0  0  0  0  0  0
   11.5857   -2.1358   -0.0000 N   0  0  0  0  0  0  0  0  0  0  0  0
   10.2851   -4.4028   -0.0000 N   0  0  0  0  0  0  0  0  0  0  0  0
   12.8743   -2.8755   -0.0000 C   0  0  0  0  0  0  0  0  0  0  0  0
   11.5737   -5.1426   -0.0000 C   0  0  0  0  0  0  0  0  0  0  0  0
   14.1629   -2.1000   -0.0000 C   0  0  0  0  0  0  0  0  0  0  0  0
   12.8743   -4.3789   -0.0000 C   0  0  0  0  0  0  0  0  0  0  0  0
   14.3061   -0.5966   -0.0000 C   0  0  0  0  0  0  0  0  0  0  0  0
   15.5350   -2.6966   -0.0000 C   0  0  0  0  0  0  0  0  0  0  0  0
   15.7737   -0.2625   -0.0000 S   0  0  0  0  0  0  0  0  0  0  0  0
   13.1726    0.4176   -0.0000 S   0  0  0  0  0  0  0  0  0  0  0  0
   16.5254   -1.5630   -0.0000 C   0  0  0  0  0  0  0  0  0  0  0  0
   15.8453   -4.1522   -0.0000 C   0  0  0  0  0  0  0  0  0  0  0  0
   13.4709    1.9091   -0.0000 C   0  0  0  0  0  0  0  0  0  0  0  0
   18.0168   -1.7062   -0.0000 C   0  0  0  0  0  0  0  0  0  0  0  0
   18.7685   -3.0068   -0.0000 S   0  0  0  0  0  0  0  0  0  0  0  0
   19.0072   -0.5727   -0.0000 N   0  0  0  0  0  0  0  0  0  0  0  0
   20.2361   -2.6727   -0.0000 C   0  0  0  0  0  0  0  0  0  0  0  0
   20.3793   -1.1574   -0.0000 C   0  0  0  0  0  0  0  0  0  0  0  0
   21.6679   -0.3818   -0.0000 C   0  0  0  0  0  0  0  0  0  0  0  0
  1  2  1  0  0  0  0
  2  3  2  0  0  0  0
  2  4  1  0  0  0  0
  3  5  1  0  0  0  0
  4  6  2  0  0  0  0
  5  7  2  0  0  0  0
  7  8  1  0  0  0  0
  8  9  1  0  0  0  0
  9 10  2  0  0  0  0
  9 11  1  0  0  0  0
 11 12  1  0  0  0  0
 12 13  1  0  0  0  0
 13 14  2  0  0  0  0
 13 15  1  0  0  0  0
 14 16  1  0  0  0  0
 15 17  2  0  0  0  0
 16 18  1  0  0  0  0
 16 19  2  0  0  0  0
 18 20  2  0  0  0  0
 18 21  1  0  0  0  0
 20 22  1  0  0  0  0
 20 23  1  0  0  0  0
 21 24  2  0  0  0  0
 21 25  1  0  0  0  0
 23 26  1  0  0  0  0
 24 27  1  0  0  0  0
 27 28  1  0  0  0  0
 27 29  2  0  0  0  0
 28 30  1  0  0  0  0
 29 31  1  0  0  0  0
 31 32  1  0  0  0  0
  6  7  1  0  0  0  0
 17 19  1  0  0  0  0
 22 24  1  0  0  0  0
 30 31  2  0  0  0  0
M  END
>  <MolRegNo>
348390

>  <m>
=

>  <Value>
8.9125e13

>  <Unit>
nM

>  <Type>
IC50

>  <Ligand Efficiency>


>  <Binding Efficiency>


>  <Surface Efficiency>


>  <Assay Index>
262926

>  <Assay Category>


>  <Assay Organism>
SARS coronavirus

>  <Target ID>
20012

>  <Target Name>
SARS coronavirus 3C-like proteinase

>  <Target Organism>
SARS coronavirus

>  <Target Description>
Target is a single protein chain

>  <Sequence Accession>
P0C6U8

>  <Reference>
J. Med. Chem. 49 (12), 3485-3495 (2006)

>  <Pubmed ID>
16759091

>  <DOI>
10.1021/jm050852f

>  <InChI-Key>
WRXXISITJDZVCL-UHFFFAOYSA-N

>  <Molecular Formula>
C22H19N4OClS4

>  <Monoisotopic Mass>
518.013018

>  <Druglikeness>
3.7138

$$$$
Compound 585
Actelion Java MolfileCreator 1.0

 32 35  0  0  0  0  0  0  0  0999 V2000
    0.0000   -0.0000   -0.0000 Cl  0  0  0  0  0  0  0  0  0  0  0  0
    1.2886   -0.7398   -0.0000 C   0  0  0  0  0  0  0  0  0  0  0  0
    1.2767   -2.2432   -0.0000 C   0  0  0  0  0  0  0  0  0  0  0  0
    2.5772    0.0239   -0.0000 C   0  0  0  0  0  0  0  0  0  0  0  0
    2.5653   -2.9829   -0.0000 C   0  0  0  0  0  0  0  0  0  0  0  0
    3.8778   -0.7159   -0.0000 C   0  0  0  0  0  0  0  0  0  0  0  0
    3.8659   -2.2193   -0.0000 C   0  0  0  0  0  0  0  0  0  0  0  0
    5.1545   -2.9591   -0.0000 N   0  0  0  0  0  0  0  0  0  0  0  0
    6.4431   -2.1954   -0.0000 C   0  0  0  0  0  0  0  0  0  0  0  0
    6.4312   -0.6801   -0.0000 O   0  0  0  0  0  0  0  0  0  0  0  0
    7.7317   -2.9352   -0.0000 C   0  0  0  0  0  0  0  0  0  0  0  0
    9.0203   -2.1716   -0.0000 S   0  0  0  0  0  0  0  0  0  0  0  0
   10.3090   -2.9113   -0.0000 C   0  0  0  0  0  0  0  0  0  0  0  0
   11.5857   -2.1358   -0.0000 N   0  0  0  0  0  0  0  0  0  0  0  0
   10.2851   -4.4028   -0.0000 N   0  0  0  0  0  0  0  0  0  0  0  0
   12.8743   -2.8755   -0.0000 C   0  0  0  0  0  0  0  0  0  0  0  0
   11.5737   -5.1426   -0.0000 C   0  0  0  0  0  0  0  0  0  0  0  0
   14.1629   -2.1000   -0.0000 C   0  0  0  0  0  0  0  0  0  0  0  0
   12.8743   -4.3789   -0.0000 C   0  0  0  0  0  0  0  0  0  0  0  0
   14.3061   -0.5966   -0.0000 C   0  0  0  0  0  0  0  0  0  0  0  0
   15.5350   -2.6966   -0.0000 C   0  0  0  0  0  0  0  0  0  0  0  0
   15.7737   -0.2625   -0.0000 S   0  0  0  0  0  0  0  0  0  0  0  0
   13.1726    0.4176   -0.0000 S   0  0  0  0  0  0  0  0  0  0  0  0
   16.5254   -1.5630   -0.0000 C   0  0  0  0  0  0  0  0  0  0  0  0
   15.8453   -4.1522   -0.0000 C   0  0  0  0  0  0  0  0  0  0  0  0
   13.4709    1.9091   -0.0000 C   0  0  0  0  0  0  0  0  0  0  0  0
   18.0168   -1.7062   -0.0000 C   0  0  0  0  0  0  0  0  0  0  0  0
   18.7685   -3.0068   -0.0000 S   0  0  0  0  0  0  0  0  0  0  0  0
   19.0072   -0.5727   -0.0000 N   0  0  0  0  0  0  0  0  0  0  0  0
   20.2361   -2.6727   -0.0000 C   0  0  0  0  0  0  0  0  0  0  0  0
   20.3793   -1.1574   -0.0000 C   0  0  0  0  0  0  0  0  0  0  0  0
   21.6679   -0.3818   -0.0000 C   0  0  0  0  0  0  0  0  0  0  0  0
  1  2  1  0  0  0  0
  2  3  2  0  0  0  0
  2  4  1  0  0  0  0
  3  5  1  0  0  0  0
  4  6  2  0  0  0  0
  5  7  2  0  0  0  0
  7  8  1  0  0  0  0
  8  9  1  0  0  0  0
  9 10  2  0  0  0  0
  9 11  1  0  0  0  0
 11 12  1  0  0  0  0
 12 13  1  0  0  0  0
 13 14  2  0  0  0  0
 13 15  1  0  0  0  0
 14 16  1  0  0  0  0
 15 17  2  0  0  0  0
 16 18  1  0  0  0  0
 16 19  2  0  0  0  0
 18 20  2  0  0  0  0
 18 21  1  0  0  0  0
 20 22  1  0  0  0  0
 20 23  1  0  0  0  0
 21 24  2  0  0  0  0
 21 25  1  0  0  0  0
 23 26  1  0  0  0  0
 24 27  1  0  0  0  0
 27 28  1  0  0  0  0
 27 29  2  0  0  0  0
 28 30  1  0  0  0  0
 29 31  1  0  0  0  0
 31 32  1  0  0  0  0
  6  7  1  0  0  0  0
 17 19  1  0  0  0  0
 22 24  1  0  0  0  0
 30 31  2  0  0  0  0
M  END
>  <MolRegNo>
348390

>  <m>
=

>  <Value>
11000

>  <Unit>
nM

>  <Type>
IC50

>  <Ligand Efficiency>
0.21

>  <Binding Efficiency>
9.55

>  <Surface Efficiency>
7.32

>  <Assay Index>
262926

>  <Assay Category>


>  <Assay Organism>
SARS coronavirus

>  <Target ID>
20012

>  <Target Name>
SARS coronavirus 3C-like proteinase

>  <Target Organism>
SARS coronavirus

>  <Target Description>
Target is a single protein chain

>  <Sequence Accession>
P0C6U8

>  <Reference>
J. Med. Chem. 49 (12), 3485-3495 (2006)

>  <Pubmed ID>
16759091

>  <DOI>
10.1021/jm050852f

>  <InChI-Key>
WRXXISITJDZVCL-UHFFFAOYSA-N

>  <Molecular Formula>
C22H19N4OClS4

>  <Monoisotopic Mass>
518.013018

>  <Druglikeness>
3.7138

$$$$
Compound 586
Actelion Java MolfileCreator 1.0

 15 16  0  0  0  0  0  0  0  0999 V2000
    0.0000   -0.0000   -0.0000 S   0  0  0  0  0  0  0  0  0  0  0  0
    1.3619    0.6212   -0.0000 C   0  0  0  0  0  0  0  0  0  0  0  0
   -1.0154    1.1349   -0.0000 C   0  0  0  0  0  0  0  0  0  0  0  0
    2.6521   -0.1195   -0.0000 C   0  0  0  0  0  0  0  0  0  0  0  0
    1.1946    2.1264   -0.0000 C   0  0  0  0  0  0  0  0  0  0  0  0
   -0.2748    2.4490   -0.0000 C   0  0  0  0  0  0  0  0  0  0  0  0
    2.6401   -1.6127   -0.0000 O   0  0  0  0  0  0  0  0  0  0  0  0
    3.9423    0.6451   -0.0000 O   0  0  0  0  0  0  0  0  0  0  0  0
    5.2325   -0.0956   -0.0000 C   0  0  0  0  0  0  0  0  0  0  0  0
    6.5227    0.6690   -0.0000 C   0  0  0  0  0  0  0  0  0  0  0  0
    5.2205   -1.5889   -0.0000 C   0  0  0  0  0  0  0  0  0  0  0  0
    7.8128   -0.0717   -0.0000 N   0  0  0  0  0  0  0  0  0  0  0  0
    6.5107    2.1862   -0.0000 C   0  0  0  0  0  0  0  0  0  0  0  0
    6.5107   -2.3295   -0.0000 C   0  0  0  0  0  0  0  0  0  0  0  0
    7.8009   -1.5769   -0.0000 C   0  0  0  0  0  0  0  0  0  0  0  0
  1  2  1  0  0  0  0
  1  3  1  0  0  0  0
  2  4  1  0  0  0  0
  2  5  2  0  0  0  0
  3  6  2  0  0  0  0
  4  7  2  0  0  0  0
  4  8  1  0  0  0  0
  8  9  1  0  0  0  0
  9 10  2  0  0  0  0
  9 11  1  0  0  0  0
 10 12  1  0  0  0  0
 10 13  1  0  0  0  0
 11 14  2  0  0  0  0
 12 15  2  0  0  0  0
  5  6  1  0  0  0  0
 14 15  1  0  0  0  0
M  END
>  <MolRegNo>
371848

>  <m>
<

>  <Value>
10

>  <Unit>
%

>  <Type>
Inhibition

>  <Ligand Efficiency>


>  <Binding Efficiency>


>  <Surface Efficiency>


>  <Assay Index>
278390

>  <Assay Category>


>  <Assay Organism>
SARS coronavirus

>  <Target ID>
20012

>  <Target Name>
SARS coronavirus 3C-like proteinase

>  <Target Organism>
SARS coronavirus

>  <Target Description>
Target is a single protein chain

>  <Sequence Accession>
P0C6U8

>  <Reference>
J. Med. Chem. 50 (8), 1850-1864 (2007)

>  <Pubmed ID>
17381079

>  <DOI>
10.1021/jm061425k

>  <InChI-Key>
WYFUZAKGLVUYMT-UHFFFAOYSA-N

>  <Molecular Formula>
C11H9NO2S

>  <Monoisotopic Mass>
219.035399

>  <Druglikeness>
1.7228

$$$$
Compound 587
Actelion Java MolfileCreator 1.0

 41 42  0  0  0  0  0  0  0  0999 V2000
    0.0000   -0.0000   -0.0000 S   0  0  0  0  0  0  0  0  0  0  0  0
    0.7483   -1.2829   -0.0000 O   0  0  0  0  0  0  0  0  0  0  0  0
   -0.7721    1.3066   -0.0000 O   0  0  0  0  0  0  0  0  0  0  0  0
    1.2829    0.7721   -0.0000 C   0  0  0  0  0  0  0  0  0  0  0  0
   -1.3066   -0.7365   -0.0000 C   0  0  0  0  0  0  0  0  0  0  0  0
    2.5776    0.0356   -0.0000 C   0  0  0  0  0  0  0  0  0  0  0  0
    1.2591    2.2806   -0.0000 C   0  0  0  0  0  0  0  0  0  0  0  0
   -2.6132    0.0238   -0.0000 C   0  0  0  0  0  0  0  0  0  0  0  0
   -1.3185   -2.2331   -0.0000 C   0  0  0  0  0  0  0  0  0  0  0  0
    3.8605    0.8077   -0.0000 C   0  0  0  0  0  0  0  0  0  0  0  0
    2.5301    3.0527   -0.0000 C   0  0  0  0  0  0  0  0  0  0  0  0
   -3.9199   -0.7127   -0.0000 C   0  0  0  0  0  0  0  0  0  0  0  0
   -2.6370   -2.9696   -0.0000 C   0  0  0  0  0  0  0  0  0  0  0  0
    3.8367    2.3163   -0.0000 C   0  0  0  0  0  0  0  0  0  0  0  0
   -3.9317   -2.2094   -0.0000 C   0  0  0  0  0  0  0  0  0  0  0  0
    5.1196    3.0884   -0.0000 N   0  0  0  0  0  0  0  0  0  0  0  0
   -5.2384   -2.9458   -0.0000 N   0  0  0  0  0  0  0  0  0  0  0  0
    6.4143    2.3638   -0.0000 C   0  0  0  0  0  0  0  0  0  0  0  0
   -6.5569   -2.1975   -0.0000 C   0  0  0  0  0  0  0  0  0  0  0  0
    7.6972    3.1359   -0.0000 C   0  0  0  0  0  0  0  0  0  0  0  0
   -7.8635   -2.9458   -0.0000 C   0  0  0  0  0  0  0  0  0  0  0  0
    7.6734    4.6444   -0.0000 C   0  0  0  0  0  0  0  0  0  0  0  0
    8.9919    2.4113   -0.0000 C   0  0  0  0  0  0  0  0  0  0  0  0
   -9.1820   -2.1975   -0.0000 C   0  0  0  0  0  0  0  0  0  0  0  0
   -7.8635   -4.4306   -0.0000 C   0  0  0  0  0  0  0  0  0  0  0  0
    8.9563    5.4165   -0.0000 O   0  0  0  0  0  0  0  0  0  0  0  0
    6.3549    5.3928   -0.0000 O   0  0  0  0  0  0  0  0  0  0  0  0
    8.9919    0.9265   -0.0000 O   0  0  0  0  0  0  0  0  0  0  0  0
   10.2748    3.1834   -0.0000 O   0  0  0  0  0  0  0  0  0  0  0  0
   -9.2057   -0.6889   -0.0000 O   0  0  0  0  0  0  0  0  0  0  0  0
  -10.4886   -2.9458   -0.0000 O   0  0  0  0  0  0  0  0  0  0  0  0
   -9.1701   -5.1790   -0.0000 O   0  0  0  0  0  0  0  0  0  0  0  0
   -6.5687   -5.1552   -0.0000 O   0  0  0  0  0  0  0  0  0  0  0  0
    8.9325    6.9251   -0.0000 C   0  0  0  0  0  0  0  0  0  0  0  0
   11.5695    2.4588   -0.0000 C   0  0  0  0  0  0  0  0  0  0  0  0
  -11.8071   -2.1975   -0.0000 C   0  0  0  0  0  0  0  0  0  0  0  0
   -6.5687   -6.6400   -0.0000 C   0  0  0  0  0  0  0  0  0  0  0  0
   10.2154    7.6972   -0.0000 C   0  0  0  0  0  0  0  0  0  0  0  0
   12.8524    3.2309   -0.0000 C   0  0  0  0  0  0  0  0  0  0  0  0
  -13.1137   -2.9458   -0.0000 C   0  0  0  0  0  0  0  0  0  0  0  0
   -7.8754   -7.3883   -0.0000 C   0  0  0  0  0  0  0  0  0  0  0  0
  1  2  2  0  0  0  0
  1  3  2  0  0  0  0
  1  4  1  0  0  0  0
  1  5  1  0  0  0  0
  4  6  2  0  0  0  0
  4  7  1  0  0  0  0
  5  8  2  0  0  0  0
  5  9  1  0  0  0  0
  6 10  1  0  0  0  0
  7 11  2  0  0  0  0
  8 12  1  0  0  0  0
  9 13  2  0  0  0  0
 10 14  2  0  0  0  0
 12 15  2  0  0  0  0
 14 16  1  0  0  0  0
 15 17  1  0  0  0  0
 16 18  2  0  0  0  0
 17 19  1  0  0  0  0
 18 20  1  0  0  0  0
 19 21  2  0  0  0  0
 20 22  2  0  0  0  0
 20 23  1  0  0  0  0
 21 24  1  0  0  0  0
 21 25  1  0  0  0  0
 22 26  1  0  0  0  0
 22 27  1  0  0  0  0
 23 28  2  0  0  0  0
 23 29  1  0  0  0  0
 24 30  2  0  0  0  0
 24 31  1  0  0  0  0
 25 32  2  0  0  0  0
 25 33  1  0  0  0  0
 26 34  1  0  0  0  0
 29 35  1  0  0  0  0
 31 36  1  0  0  0  0
 33 37  1  0  0  0  0
 34 38  1  0  0  0  0
 35 39  1  0  0  0  0
 36 40  1  0  0  0  0
 37 41  1  0  0  0  0
 11 14  1  0  0  0  0
 13 15  1  0  0  0  0
M  END
>  <MolRegNo>
356446

>  <m>
=

>  <Value>
32000

>  <Unit>
nM

>  <Type>
IC50

>  <Ligand Efficiency>
0.15

>  <Binding Efficiency>
7.64

>  <Surface Efficiency>
2.69

>  <Assay Index>
266027

>  <Assay Category>


>  <Assay Organism>
SARS coronavirus

>  <Target ID>
20012

>  <Target Name>
SARS coronavirus 3C-like proteinase

>  <Target Organism>
SARS coronavirus

>  <Target Description>
Target is a single protein chain

>  <Sequence Accession>
P0C6U8

>  <Reference>
J. Med. Chem. 49 (17), 5154-5161 (2006)

>  <Pubmed ID>
16913704

>  <DOI>
10.1021/jm060207o

>  <InChI-Key>
XBRUKZHFEJRAEI-UHFFFAOYSA-N

>  <Molecular Formula>
C28H32N2O10S

>  <Monoisotopic Mass>
588.177768

>  <Druglikeness>
-18.207

$$$$
Compound 588
Actelion Java MolfileCreator 1.0

 32 36  0  0  0  0  0  0  0  0999 V2000
    0.0000   -0.0000   -0.0000 S   0  0  0  0  0  0  0  0  0  0  0  0
   -1.2102   -0.8661   -0.0000 C   0  0  0  0  0  0  0  0  0  0  0  0
   -0.4746    1.4356   -0.0000 C   0  0  0  0  0  0  0  0  0  0  0  0
   -2.4441    0.0119   -0.0000 N   0  0  0  0  0  0  0  0  0  0  0  0
   -1.2221   -2.3492   -0.0000 C   0  0  0  0  0  0  0  0  0  0  0  0
   -1.9814    1.4475   -0.0000 C   0  0  0  0  0  0  0  0  0  0  0  0
   -3.9509    0.0119   -0.0000 C   0  0  0  0  0  0  0  0  0  0  0  0
   -2.5272   -3.0848   -0.0000 C   0  0  0  0  0  0  0  0  0  0  0  0
    0.0593   -3.0848   -0.0000 C   0  0  0  0  0  0  0  0  0  0  0  0
   -2.8713    2.6696   -0.0000 O   0  0  0  0  0  0  0  0  0  0  0  0
   -4.7103    1.3170   -0.0000 N   0  0  0  0  0  0  0  0  0  0  0  0
   -4.6984   -1.2814   -0.0000 N   0  0  0  0  0  0  0  0  0  0  0  0
   -3.8323   -2.3255   -0.0000 F   0  0  0  0  0  0  0  0  0  0  0  0
   -2.5390   -4.5679   -0.0000 C   0  0  0  0  0  0  0  0  0  0  0  0
    1.3407   -2.3255   -0.0000 F   0  0  0  0  0  0  0  0  0  0  0  0
    0.0475   -4.5798   -0.0000 C   0  0  0  0  0  0  0  0  0  0  0  0
   -6.2171    1.3170   -0.0000 C   0  0  0  0  0  0  0  0  0  0  0  0
   -6.2052   -1.2814   -0.0000 C   0  0  0  0  0  0  0  0  0  0  0  0
   -1.2577   -5.3035   -0.0000 C   0  0  0  0  0  0  0  0  0  0  0  0
   -6.9883    2.6221   -0.0000 C   0  0  0  0  0  0  0  0  0  0  0  0
   -6.9764    0.0237   -0.0000 C   0  0  0  0  0  0  0  0  0  0  0  0
   -6.9527   -2.5746   -0.0000 C   0  0  0  0  0  0  0  0  0  0  0  0
   -6.2527    3.9272   -0.0000 C   0  0  0  0  0  0  0  0  0  0  0  0
   -8.4832    2.6102   -0.0000 C   0  0  0  0  0  0  0  0  0  0  0  0
   -8.4595   -2.5628   -0.0000 C   0  0  0  0  0  0  0  0  0  0  0  0
   -6.2052   -3.8442   -0.0000 C   0  0  0  0  0  0  0  0  0  0  0  0
   -7.0120    5.2323   -0.0000 C   0  0  0  0  0  0  0  0  0  0  0  0
   -9.2545    3.9035   -0.0000 C   0  0  0  0  0  0  0  0  0  0  0  0
   -9.2070   -3.8560   -0.0000 C   0  0  0  0  0  0  0  0  0  0  0  0
   -6.9527   -5.1374   -0.0000 C   0  0  0  0  0  0  0  0  0  0  0  0
   -8.5188    5.2442   -0.0000 C   0  0  0  0  0  0  0  0  0  0  0  0
   -8.4595   -5.1374   -0.0000 C   0  0  0  0  0  0  0  0  0  0  0  0
  1  2  1  0  0  0  0
  1  3  1  0  0  0  0
  2  4  1  0  0  0  0
  2  5  1  0  0  0  0
  3  6  1  0  0  0  0
  4  7  1  0  0  0  0
  5  8  2  0  0  0  0
  5  9  1  0  0  0  0
  6 10  2  0  0  0  0
  7 11  2  0  0  0  0
  7 12  1  0  0  0  0
  8 13  1  0  0  0  0
  8 14  1  0  0  0  0
  9 15  1  0  0  0  0
  9 16  2  0  0  0  0
 11 17  1  0  0  0  0
 12 18  2  0  0  0  0
 14 19  2  0  0  0  0
 17 20  1  0  0  0  0
 17 21  2  0  0  0  0
 18 22  1  0  0  0  0
 20 23  2  0  0  0  0
 20 24  1  0  0  0  0
 22 25  2  0  0  0  0
 22 26  1  0  0  0  0
 23 27  1  0  0  0  0
 24 28  2  0  0  0  0
 25 29  1  0  0  0  0
 26 30  2  0  0  0  0
 27 31  2  0  0  0  0
 29 32  2  0  0  0  0
  4  6  1  0  0  0  0
 16 19  1  0  0  0  0
 18 21  1  0  0  0  0
 28 31  1  0  0  0  0
 30 32  1  0  0  0  0
M  END
>  <MolRegNo>
379295

>  <m>
<=

>  <Value>
50

>  <Unit>
%

>  <Type>
Inhibition

>  <Ligand Efficiency>


>  <Binding Efficiency>


>  <Surface Efficiency>


>  <Assay Index>
406904

>  <Assay Category>


>  <Assay Organism>
SARS coronavirus

>  <Target ID>
101075

>  <Target Name>
Replicase polyprotein 1ab

>  <Target Organism>
SARS coronavirus

>  <Target Description>
Target is a single protein chain

>  <Sequence Accession>
P0C6X7

>  <Reference>
Bioorg. Med. Chem. Lett. 18 (23), 6110-6114 (2008)

>  <Pubmed ID>
18947995

>  <DOI>
10.1016/j.bmcl.2008.10.023

>  <InChI-Key>
XDUQUVICUMADHK-UHFFFAOYSA-N

>  <Molecular Formula>
C25H17N3OF2S

>  <Monoisotopic Mass>
445.106038

>  <Druglikeness>
1.4724

$$$$
Compound 589
Actelion Java MolfileCreator 1.0

 23 26  0  0  0  0  0  0  0  0999 V2000
    0.0000   -0.0000   -0.0000 O   0  0  0  0  0  0  0  0  0  0  0  0
    1.2945   -0.7363   -0.0000 C   0  0  0  0  0  0  0  0  0  0  0  0
    1.2945   -2.2327   -0.0000 C   0  0  0  0  0  0  0  0  0  0  0  0
    2.5890    0.0356   -0.0000 C   0  0  0  0  0  0  0  0  0  0  0  0
    2.5890   -2.9690   -0.0000 C   0  0  0  0  0  0  0  0  0  0  0  0
   -0.0119   -2.9690   -0.0000 C   0  0  0  0  0  0  0  0  0  0  0  0
    2.5771    1.5558   -0.0000 O   0  0  0  0  0  0  0  0  0  0  0  0
    3.8835   -0.7007   -0.0000 C   0  0  0  0  0  0  0  0  0  0  0  0
    3.8716   -2.1971   -0.0000 C   0  0  0  0  0  0  0  0  0  0  0  0
    2.5771   -4.4654   -0.0000 C   0  0  0  0  0  0  0  0  0  0  0  0
   -0.0238   -4.4654   -0.0000 C   0  0  0  0  0  0  0  0  0  0  0  0
   -1.3182   -2.2090   -0.0000 C   0  0  0  0  0  0  0  0  0  0  0  0
    5.2968   -0.2256   -0.0000 C   0  0  0  0  0  0  0  0  0  0  0  0
    5.2849   -2.6484   -0.0000 O   0  0  0  0  0  0  0  0  0  0  0  0
    1.2589   -5.2017   -0.0000 C   0  0  0  0  0  0  0  0  0  0  0  0
   -1.3420   -5.2136   -0.0000 C   0  0  0  0  0  0  0  0  0  0  0  0
   -2.6365   -2.9453   -0.0000 C   0  0  0  0  0  0  0  0  0  0  0  0
    6.1637   -1.4251   -0.0000 C   0  0  0  0  0  0  0  0  0  0  0  0
    5.7480    1.2114   -0.0000 C   0  0  0  0  0  0  0  0  0  0  0  0
   -2.6603   -4.4417   -0.0000 C   0  0  0  0  0  0  0  0  0  0  0  0
   -2.4227   -6.2587   -0.0000 C   0  0  0  0  0  0  0  0  0  0  0  0
   -0.2969   -6.2706   -0.0000 C   0  0  0  0  0  0  0  0  0  0  0  0
   -3.8835   -5.8549   -0.0000 O   0  0  0  0  0  0  0  0  0  0  0  0
  1  2  2  0  0  0  0
  2  3  1  0  0  0  0
  2  4  1  0  0  0  0
  3  5  2  0  0  0  0
  3  6  1  0  0  0  0
  4  7  2  0  0  0  0
  4  8  1  0  0  0  0
  5  9  1  0  0  0  0
  5 10  1  0  0  0  0
  6 11  2  0  0  0  0
  6 12  1  0  0  0  0
  8 13  1  0  0  0  0
  9 14  1  0  0  0  0
 10 15  2  0  0  0  0
 11 16  1  0  0  0  0
 12 17  1  0  0  0  0
 13 18  2  0  0  0  0
 13 19  1  0  0  0  0
 16 20  1  0  0  0  0
 16 21  1  0  0  0  0
 16 22  1  0  0  0  0
 21 23  1  0  0  0  0
  8  9  2  0  0  0  0
 11 15  1  0  0  0  0
 14 18  1  0  0  0  0
 17 20  1  0  0  0  0
M  END
>  <MolRegNo>
358740

>  <m>
=

>  <Value>
52000

>  <Unit>
nM

>  <Type>
IC50

>  <Ligand Efficiency>
0.25

>  <Binding Efficiency>
13.80

>  <Surface Efficiency>
6.35

>  <Assay Index>
678193

>  <Assay Category>


>  <Assay Organism>
SARS coronavirus

>  <Target ID>
20012

>  <Target Name>
SARS coronavirus 3C-like proteinase

>  <Target Organism>
SARS coronavirus

>  <Target Description>
Target is a single protein chain

>  <Sequence Accession>
P0C6U8

>  <Reference>
Bioorg. Med. Chem. 20 (19), 5928-5935 (2012)

>  <Pubmed ID>
22884354

>  <DOI>
10.1016/j.bmc.2012.07.038

>  <InChI-Key>
XDUXBBDRILEIEZ-UHFFFAOYSA-N

>  <Molecular Formula>
C19H18O4

>  <Monoisotopic Mass>
310.120510

>  <Druglikeness>
-12.76

$$$$
Compound 590
Actelion Java MolfileCreator 1.0

 23 26  0  0  0  0  0  0  0  0999 V2000
    0.0000   -0.0000   -0.0000 O   0  0  0  0  0  0  0  0  0  0  0  0
    1.2945   -0.7363   -0.0000 C   0  0  0  0  0  0  0  0  0  0  0  0
    1.2945   -2.2327   -0.0000 C   0  0  0  0  0  0  0  0  0  0  0  0
    2.5890    0.0356   -0.0000 C   0  0  0  0  0  0  0  0  0  0  0  0
    2.5890   -2.9690   -0.0000 C   0  0  0  0  0  0  0  0  0  0  0  0
   -0.0119   -2.9690   -0.0000 C   0  0  0  0  0  0  0  0  0  0  0  0
    2.5771    1.5558   -0.0000 O   0  0  0  0  0  0  0  0  0  0  0  0
    3.8835   -0.7007   -0.0000 C   0  0  0  0  0  0  0  0  0  0  0  0
    3.8716   -2.1971   -0.0000 C   0  0  0  0  0  0  0  0  0  0  0  0
    2.5771   -4.4654   -0.0000 C   0  0  0  0  0  0  0  0  0  0  0  0
   -0.0238   -4.4654   -0.0000 C   0  0  0  0  0  0  0  0  0  0  0  0
   -1.3182   -2.2090   -0.0000 C   0  0  0  0  0  0  0  0  0  0  0  0
    5.2968   -0.2256   -0.0000 C   0  0  0  0  0  0  0  0  0  0  0  0
    5.2849   -2.6484   -0.0000 O   0  0  0  0  0  0  0  0  0  0  0  0
    1.2589   -5.2017   -0.0000 C   0  0  0  0  0  0  0  0  0  0  0  0
   -1.3420   -5.2136   -0.0000 C   0  0  0  0  0  0  0  0  0  0  0  0
   -2.6365   -2.9453   -0.0000 C   0  0  0  0  0  0  0  0  0  0  0  0
    6.1637   -1.4251   -0.0000 C   0  0  0  0  0  0  0  0  0  0  0  0
    5.7480    1.2114   -0.0000 C   0  0  0  0  0  0  0  0  0  0  0  0
   -2.6603   -4.4417   -0.0000 C   0  0  0  0  0  0  0  0  0  0  0  0
   -2.4227   -6.2587   -0.0000 C   0  0  0  0  0  0  0  0  0  0  0  0
   -0.2969   -6.2706   -0.0000 C   0  0  0  0  0  0  0  0  0  0  0  0
   -3.8835   -5.8549   -0.0000 O   0  0  0  0  0  0  0  0  0  0  0  0
  1  2  2  0  0  0  0
  2  3  1  0  0  0  0
  2  4  1  0  0  0  0
  3  5  2  0  0  0  0
  3  6  1  0  0  0  0
  4  7  2  0  0  0  0
  4  8  1  0  0  0  0
  5  9  1  0  0  0  0
  5 10  1  0  0  0  0
  6 11  2  0  0  0  0
  6 12  1  0  0  0  0
  8 13  1  0  0  0  0
  9 14  1  0  0  0  0
 10 15  2  0  0  0  0
 11 16  1  0  0  0  0
 12 17  1  0  0  0  0
 13 18  2  0  0  0  0
 13 19  1  0  0  0  0
 16 20  1  0  0  0  0
 16 21  1  0  0  0  0
 16 22  1  0  0  0  0
 21 23  1  0  0  0  0
  8  9  2  0  0  0  0
 11 15  1  0  0  0  0
 14 18  1  0  0  0  0
 17 20  1  0  0  0  0
M  END
>  <MolRegNo>
358740

>  <m>
=

>  <Value>
24800

>  <Unit>
nM

>  <Type>
IC50

>  <Ligand Efficiency>
0.27

>  <Binding Efficiency>
14.84

>  <Surface Efficiency>
6.82

>  <Assay Index>
678191

>  <Assay Category>


>  <Assay Organism>
SARS coronavirus

>  <Target ID>
20012

>  <Target Name>
SARS coronavirus 3C-like proteinase

>  <Target Organism>
SARS coronavirus

>  <Target Description>
Target is a single protein chain

>  <Sequence Accession>
P0C6U8

>  <Reference>
Bioorg. Med. Chem. 20 (19), 5928-5935 (2012)

>  <Pubmed ID>
22884354

>  <DOI>
10.1016/j.bmc.2012.07.038

>  <InChI-Key>
XDUXBBDRILEIEZ-UHFFFAOYSA-N

>  <Molecular Formula>
C19H18O4

>  <Monoisotopic Mass>
310.120510

>  <Druglikeness>
-12.76

$$$$
Compound 591
Actelion Java MolfileCreator 1.0

 23 26  0  0  0  0  0  0  0  0999 V2000
    0.0000   -0.0000   -0.0000 O   0  0  0  0  0  0  0  0  0  0  0  0
    1.2945   -0.7363   -0.0000 C   0  0  0  0  0  0  0  0  0  0  0  0
    1.2945   -2.2327   -0.0000 C   0  0  0  0  0  0  0  0  0  0  0  0
    2.5890    0.0356   -0.0000 C   0  0  0  0  0  0  0  0  0  0  0  0
    2.5890   -2.9690   -0.0000 C   0  0  0  0  0  0  0  0  0  0  0  0
   -0.0119   -2.9690   -0.0000 C   0  0  0  0  0  0  0  0  0  0  0  0
    2.5771    1.5558   -0.0000 O   0  0  0  0  0  0  0  0  0  0  0  0
    3.8835   -0.7007   -0.0000 C   0  0  0  0  0  0  0  0  0  0  0  0
    3.8716   -2.1971   -0.0000 C   0  0  0  0  0  0  0  0  0  0  0  0
    2.5771   -4.4654   -0.0000 C   0  0  0  0  0  0  0  0  0  0  0  0
   -0.0238   -4.4654   -0.0000 C   0  0  0  0  0  0  0  0  0  0  0  0
   -1.3182   -2.2090   -0.0000 C   0  0  0  0  0  0  0  0  0  0  0  0
    5.2968   -0.2256   -0.0000 C   0  0  0  0  0  0  0  0  0  0  0  0
    5.2849   -2.6484   -0.0000 O   0  0  0  0  0  0  0  0  0  0  0  0
    1.2589   -5.2017   -0.0000 C   0  0  0  0  0  0  0  0  0  0  0  0
   -1.3420   -5.2136   -0.0000 C   0  0  0  0  0  0  0  0  0  0  0  0
   -2.6365   -2.9453   -0.0000 C   0  0  0  0  0  0  0  0  0  0  0  0
    6.1637   -1.4251   -0.0000 C   0  0  0  0  0  0  0  0  0  0  0  0
    5.7480    1.2114   -0.0000 C   0  0  0  0  0  0  0  0  0  0  0  0
   -2.6603   -4.4417   -0.0000 C   0  0  0  0  0  0  0  0  0  0  0  0
   -2.4227   -6.2587   -0.0000 C   0  0  0  0  0  0  0  0  0  0  0  0
   -0.2969   -6.2706   -0.0000 C   0  0  0  0  0  0  0  0  0  0  0  0
   -3.8835   -5.8549   -0.0000 O   0  0  0  0  0  0  0  0  0  0  0  0
  1  2  2  0  0  0  0
  2  3  1  0  0  0  0
  2  4  1  0  0  0  0
  3  5  2  0  0  0  0
  3  6  1  0  0  0  0
  4  7  2  0  0  0  0
  4  8  1  0  0  0  0
  5  9  1  0  0  0  0
  5 10  1  0  0  0  0
  6 11  2  0  0  0  0
  6 12  1  0  0  0  0
  8 13  1  0  0  0  0
  9 14  1  0  0  0  0
 10 15  2  0  0  0  0
 11 16  1  0  0  0  0
 12 17  1  0  0  0  0
 13 18  2  0  0  0  0
 13 19  1  0  0  0  0
 16 20  1  0  0  0  0
 16 21  1  0  0  0  0
 16 22  1  0  0  0  0
 21 23  1  0  0  0  0
  8  9  2  0  0  0  0
 11 15  1  0  0  0  0
 14 18  1  0  0  0  0
 17 20  1  0  0  0  0
M  END
>  <MolRegNo>
358740

>  <m>
=

>  <Value>
18000

>  <Unit>
nM

>  <Type>
IC50

>  <Ligand Efficiency>
0.28

>  <Binding Efficiency>
15.29

>  <Surface Efficiency>
7.03

>  <Assay Index>
678310

>  <Assay Category>


>  <Assay Organism>
SARS coronavirus

>  <Target ID>
20012

>  <Target Name>
SARS coronavirus 3C-like proteinase

>  <Target Organism>
SARS coronavirus

>  <Target Description>
Target is a single protein chain

>  <Sequence Accession>
P0C6U8

>  <Reference>
Bioorg. Med. Chem. 20 (19), 5928-5935 (2012)

>  <Pubmed ID>
22884354

>  <DOI>
10.1016/j.bmc.2012.07.038

>  <InChI-Key>
XDUXBBDRILEIEZ-UHFFFAOYSA-N

>  <Molecular Formula>
C19H18O4

>  <Monoisotopic Mass>
310.120510

>  <Druglikeness>
-12.76

$$$$
Compound 592
Actelion Java MolfileCreator 1.0

 23 26  0  0  0  0  0  0  0  0999 V2000
    0.0000   -0.0000   -0.0000 O   0  0  0  0  0  0  0  0  0  0  0  0
    1.2945   -0.7363   -0.0000 C   0  0  0  0  0  0  0  0  0  0  0  0
    1.2945   -2.2327   -0.0000 C   0  0  0  0  0  0  0  0  0  0  0  0
    2.5890    0.0356   -0.0000 C   0  0  0  0  0  0  0  0  0  0  0  0
    2.5890   -2.9690   -0.0000 C   0  0  0  0  0  0  0  0  0  0  0  0
   -0.0119   -2.9690   -0.0000 C   0  0  0  0  0  0  0  0  0  0  0  0
    2.5771    1.5558   -0.0000 O   0  0  0  0  0  0  0  0  0  0  0  0
    3.8835   -0.7007   -0.0000 C   0  0  0  0  0  0  0  0  0  0  0  0
    3.8716   -2.1971   -0.0000 C   0  0  0  0  0  0  0  0  0  0  0  0
    2.5771   -4.4654   -0.0000 C   0  0  0  0  0  0  0  0  0  0  0  0
   -0.0238   -4.4654   -0.0000 C   0  0  0  0  0  0  0  0  0  0  0  0
   -1.3182   -2.2090   -0.0000 C   0  0  0  0  0  0  0  0  0  0  0  0
    5.2968   -0.2256   -0.0000 C   0  0  0  0  0  0  0  0  0  0  0  0
    5.2849   -2.6484   -0.0000 O   0  0  0  0  0  0  0  0  0  0  0  0
    1.2589   -5.2017   -0.0000 C   0  0  0  0  0  0  0  0  0  0  0  0
   -1.3420   -5.2136   -0.0000 C   0  0  0  0  0  0  0  0  0  0  0  0
   -2.6365   -2.9453   -0.0000 C   0  0  0  0  0  0  0  0  0  0  0  0
    6.1637   -1.4251   -0.0000 C   0  0  0  0  0  0  0  0  0  0  0  0
    5.7480    1.2114   -0.0000 C   0  0  0  0  0  0  0  0  0  0  0  0
   -2.6603   -4.4417   -0.0000 C   0  0  0  0  0  0  0  0  0  0  0  0
   -2.4227   -6.2587   -0.0000 C   0  0  0  0  0  0  0  0  0  0  0  0
   -0.2969   -6.2706   -0.0000 C   0  0  0  0  0  0  0  0  0  0  0  0
   -3.8835   -5.8549   -0.0000 O   0  0  0  0  0  0  0  0  0  0  0  0
  1  2  2  0  0  0  0
  2  3  1  0  0  0  0
  2  4  1  0  0  0  0
  3  5  2  0  0  0  0
  3  6  1  0  0  0  0
  4  7  2  0  0  0  0
  4  8  1  0  0  0  0
  5  9  1  0  0  0  0
  5 10  1  0  0  0  0
  6 11  2  0  0  0  0
  6 12  1  0  0  0  0
  8 13  1  0  0  0  0
  9 14  1  0  0  0  0
 10 15  2  0  0  0  0
 11 16  1  0  0  0  0
 12 17  1  0  0  0  0
 13 18  2  0  0  0  0
 13 19  1  0  0  0  0
 16 20  1  0  0  0  0
 16 21  1  0  0  0  0
 16 22  1  0  0  0  0
 21 23  1  0  0  0  0
  8  9  2  0  0  0  0
 11 15  1  0  0  0  0
 14 18  1  0  0  0  0
 17 20  1  0  0  0  0
M  END
>  <MolRegNo>
358740

>  <m>
=

>  <Value>
10700

>  <Unit>
nM

>  <Type>
IC50

>  <Ligand Efficiency>
0.30

>  <Binding Efficiency>
16.02

>  <Surface Efficiency>
7.36

>  <Assay Index>
678190

>  <Assay Category>


>  <Assay Organism>
SARS coronavirus

>  <Target ID>
20012

>  <Target Name>
SARS coronavirus 3C-like proteinase

>  <Target Organism>
SARS coronavirus

>  <Target Description>
Target is a single protein chain

>  <Sequence Accession>
P0C6U8

>  <Reference>
Bioorg. Med. Chem. 20 (19), 5928-5935 (2012)

>  <Pubmed ID>
22884354

>  <DOI>
10.1016/j.bmc.2012.07.038

>  <InChI-Key>
XDUXBBDRILEIEZ-UHFFFAOYSA-N

>  <Molecular Formula>
C19H18O4

>  <Monoisotopic Mass>
310.120510

>  <Druglikeness>
-12.76

$$$$
Compound 593
Actelion Java MolfileCreator 1.0

 23 26  0  0  0  0  0  0  0  0999 V2000
    0.0000   -0.0000   -0.0000 O   0  0  0  0  0  0  0  0  0  0  0  0
    1.2945   -0.7363   -0.0000 C   0  0  0  0  0  0  0  0  0  0  0  0
    1.2945   -2.2327   -0.0000 C   0  0  0  0  0  0  0  0  0  0  0  0
    2.5890    0.0356   -0.0000 C   0  0  0  0  0  0  0  0  0  0  0  0
    2.5890   -2.9690   -0.0000 C   0  0  0  0  0  0  0  0  0  0  0  0
   -0.0119   -2.9690   -0.0000 C   0  0  0  0  0  0  0  0  0  0  0  0
    2.5771    1.5558   -0.0000 O   0  0  0  0  0  0  0  0  0  0  0  0
    3.8835   -0.7007   -0.0000 C   0  0  0  0  0  0  0  0  0  0  0  0
    3.8716   -2.1971   -0.0000 C   0  0  0  0  0  0  0  0  0  0  0  0
    2.5771   -4.4654   -0.0000 C   0  0  0  0  0  0  0  0  0  0  0  0
   -0.0238   -4.4654   -0.0000 C   0  0  0  0  0  0  0  0  0  0  0  0
   -1.3182   -2.2090   -0.0000 C   0  0  0  0  0  0  0  0  0  0  0  0
    5.2968   -0.2256   -0.0000 C   0  0  0  0  0  0  0  0  0  0  0  0
    5.2849   -2.6484   -0.0000 O   0  0  0  0  0  0  0  0  0  0  0  0
    1.2589   -5.2017   -0.0000 C   0  0  0  0  0  0  0  0  0  0  0  0
   -1.3420   -5.2136   -0.0000 C   0  0  0  0  0  0  0  0  0  0  0  0
   -2.6365   -2.9453   -0.0000 C   0  0  0  0  0  0  0  0  0  0  0  0
    6.1637   -1.4251   -0.0000 C   0  0  0  0  0  0  0  0  0  0  0  0
    5.7480    1.2114   -0.0000 C   0  0  0  0  0  0  0  0  0  0  0  0
   -2.6603   -4.4417   -0.0000 C   0  0  0  0  0  0  0  0  0  0  0  0
   -2.4227   -6.2587   -0.0000 C   0  0  0  0  0  0  0  0  0  0  0  0
   -0.2969   -6.2706   -0.0000 C   0  0  0  0  0  0  0  0  0  0  0  0
   -3.8835   -5.8549   -0.0000 O   0  0  0  0  0  0  0  0  0  0  0  0
  1  2  2  0  0  0  0
  2  3  1  0  0  0  0
  2  4  1  0  0  0  0
  3  5  2  0  0  0  0
  3  6  1  0  0  0  0
  4  7  2  0  0  0  0
  4  8  1  0  0  0  0
  5  9  1  0  0  0  0
  5 10  1  0  0  0  0
  6 11  2  0  0  0  0
  6 12  1  0  0  0  0
  8 13  1  0  0  0  0
  9 14  1  0  0  0  0
 10 15  2  0  0  0  0
 11 16  1  0  0  0  0
 12 17  1  0  0  0  0
 13 18  2  0  0  0  0
 13 19  1  0  0  0  0
 16 20  1  0  0  0  0
 16 21  1  0  0  0  0
 16 22  1  0  0  0  0
 21 23  1  0  0  0  0
  8  9  2  0  0  0  0
 11 15  1  0  0  0  0
 14 18  1  0  0  0  0
 17 20  1  0  0  0  0
M  END
>  <MolRegNo>
358740

>  <m>


>  <Value>
0

>  <Unit>


>  <Type>
Inhibition

>  <Ligand Efficiency>


>  <Binding Efficiency>


>  <Surface Efficiency>


>  <Assay Index>
678307

>  <Assay Category>


>  <Assay Organism>
SARS coronavirus

>  <Target ID>
20012

>  <Target Name>
SARS coronavirus 3C-like proteinase

>  <Target Organism>
SARS coronavirus

>  <Target Description>
Target is a single protein chain

>  <Sequence Accession>
P0C6U8

>  <Reference>
Bioorg. Med. Chem. 20 (19), 5928-5935 (2012)

>  <Pubmed ID>
22884354

>  <DOI>
10.1016/j.bmc.2012.07.038

>  <InChI-Key>
XDUXBBDRILEIEZ-UHFFFAOYSA-N

>  <Molecular Formula>
C19H18O4

>  <Monoisotopic Mass>
310.120510

>  <Druglikeness>
-12.76

$$$$
Compound 594
Actelion Java MolfileCreator 1.0

 23 26  0  0  0  0  0  0  0  0999 V2000
    0.0000   -0.0000   -0.0000 O   0  0  0  0  0  0  0  0  0  0  0  0
    1.2945   -0.7363   -0.0000 C   0  0  0  0  0  0  0  0  0  0  0  0
    1.2945   -2.2327   -0.0000 C   0  0  0  0  0  0  0  0  0  0  0  0
    2.5890    0.0356   -0.0000 C   0  0  0  0  0  0  0  0  0  0  0  0
    2.5890   -2.9690   -0.0000 C   0  0  0  0  0  0  0  0  0  0  0  0
   -0.0119   -2.9690   -0.0000 C   0  0  0  0  0  0  0  0  0  0  0  0
    2.5771    1.5558   -0.0000 O   0  0  0  0  0  0  0  0  0  0  0  0
    3.8835   -0.7007   -0.0000 C   0  0  0  0  0  0  0  0  0  0  0  0
    3.8716   -2.1971   -0.0000 C   0  0  0  0  0  0  0  0  0  0  0  0
    2.5771   -4.4654   -0.0000 C   0  0  0  0  0  0  0  0  0  0  0  0
   -0.0238   -4.4654   -0.0000 C   0  0  0  0  0  0  0  0  0  0  0  0
   -1.3182   -2.2090   -0.0000 C   0  0  0  0  0  0  0  0  0  0  0  0
    5.2968   -0.2256   -0.0000 C   0  0  0  0  0  0  0  0  0  0  0  0
    5.2849   -2.6484   -0.0000 O   0  0  0  0  0  0  0  0  0  0  0  0
    1.2589   -5.2017   -0.0000 C   0  0  0  0  0  0  0  0  0  0  0  0
   -1.3420   -5.2136   -0.0000 C   0  0  0  0  0  0  0  0  0  0  0  0
   -2.6365   -2.9453   -0.0000 C   0  0  0  0  0  0  0  0  0  0  0  0
    6.1637   -1.4251   -0.0000 C   0  0  0  0  0  0  0  0  0  0  0  0
    5.7480    1.2114   -0.0000 C   0  0  0  0  0  0  0  0  0  0  0  0
   -2.6603   -4.4417   -0.0000 C   0  0  0  0  0  0  0  0  0  0  0  0
   -2.4227   -6.2587   -0.0000 C   0  0  0  0  0  0  0  0  0  0  0  0
   -0.2969   -6.2706   -0.0000 C   0  0  0  0  0  0  0  0  0  0  0  0
   -3.8835   -5.8549   -0.0000 O   0  0  0  0  0  0  0  0  0  0  0  0
  1  2  2  0  0  0  0
  2  3  1  0  0  0  0
  2  4  1  0  0  0  0
  3  5  2  0  0  0  0
  3  6  1  0  0  0  0
  4  7  2  0  0  0  0
  4  8  1  0  0  0  0
  5  9  1  0  0  0  0
  5 10  1  0  0  0  0
  6 11  2  0  0  0  0
  6 12  1  0  0  0  0
  8 13  1  0  0  0  0
  9 14  1  0  0  0  0
 10 15  2  0  0  0  0
 11 16  1  0  0  0  0
 12 17  1  0  0  0  0
 13 18  2  0  0  0  0
 13 19  1  0  0  0  0
 16 20  1  0  0  0  0
 16 21  1  0  0  0  0
 16 22  1  0  0  0  0
 21 23  1  0  0  0  0
  8  9  2  0  0  0  0
 11 15  1  0  0  0  0
 14 18  1  0  0  0  0
 17 20  1  0  0  0  0
M  END
>  <MolRegNo>
358740

>  <m>


>  <Value>
0

>  <Unit>


>  <Type>
Inhibition

>  <Ligand Efficiency>


>  <Binding Efficiency>


>  <Surface Efficiency>


>  <Assay Index>
678308

>  <Assay Category>


>  <Assay Organism>
SARS coronavirus

>  <Target ID>
20012

>  <Target Name>
SARS coronavirus 3C-like proteinase

>  <Target Organism>
SARS coronavirus

>  <Target Description>
Target is a single protein chain

>  <Sequence Accession>
P0C6U8

>  <Reference>
Bioorg. Med. Chem. 20 (19), 5928-5935 (2012)

>  <Pubmed ID>
22884354

>  <DOI>
10.1016/j.bmc.2012.07.038

>  <InChI-Key>
XDUXBBDRILEIEZ-UHFFFAOYSA-N

>  <Molecular Formula>
C19H18O4

>  <Monoisotopic Mass>
310.120510

>  <Druglikeness>
-12.76

$$$$
Compound 595
Actelion Java MolfileCreator 1.0

 23 26  0  0  0  0  0  0  0  0999 V2000
    0.0000   -0.0000   -0.0000 O   0  0  0  0  0  0  0  0  0  0  0  0
    1.2945   -0.7363   -0.0000 C   0  0  0  0  0  0  0  0  0  0  0  0
    1.2945   -2.2327   -0.0000 C   0  0  0  0  0  0  0  0  0  0  0  0
    2.5890    0.0356   -0.0000 C   0  0  0  0  0  0  0  0  0  0  0  0
    2.5890   -2.9690   -0.0000 C   0  0  0  0  0  0  0  0  0  0  0  0
   -0.0119   -2.9690   -0.0000 C   0  0  0  0  0  0  0  0  0  0  0  0
    2.5771    1.5558   -0.0000 O   0  0  0  0  0  0  0  0  0  0  0  0
    3.8835   -0.7007   -0.0000 C   0  0  0  0  0  0  0  0  0  0  0  0
    3.8716   -2.1971   -0.0000 C   0  0  0  0  0  0  0  0  0  0  0  0
    2.5771   -4.4654   -0.0000 C   0  0  0  0  0  0  0  0  0  0  0  0
   -0.0238   -4.4654   -0.0000 C   0  0  0  0  0  0  0  0  0  0  0  0
   -1.3182   -2.2090   -0.0000 C   0  0  0  0  0  0  0  0  0  0  0  0
    5.2968   -0.2256   -0.0000 C   0  0  0  0  0  0  0  0  0  0  0  0
    5.2849   -2.6484   -0.0000 O   0  0  0  0  0  0  0  0  0  0  0  0
    1.2589   -5.2017   -0.0000 C   0  0  0  0  0  0  0  0  0  0  0  0
   -1.3420   -5.2136   -0.0000 C   0  0  0  0  0  0  0  0  0  0  0  0
   -2.6365   -2.9453   -0.0000 C   0  0  0  0  0  0  0  0  0  0  0  0
    6.1637   -1.4251   -0.0000 C   0  0  0  0  0  0  0  0  0  0  0  0
    5.7480    1.2114   -0.0000 C   0  0  0  0  0  0  0  0  0  0  0  0
   -2.6603   -4.4417   -0.0000 C   0  0  0  0  0  0  0  0  0  0  0  0
   -2.4227   -6.2587   -0.0000 C   0  0  0  0  0  0  0  0  0  0  0  0
   -0.2969   -6.2706   -0.0000 C   0  0  0  0  0  0  0  0  0  0  0  0
   -3.8835   -5.8549   -0.0000 O   0  0  0  0  0  0  0  0  0  0  0  0
  1  2  2  0  0  0  0
  2  3  1  0  0  0  0
  2  4  1  0  0  0  0
  3  5  2  0  0  0  0
  3  6  1  0  0  0  0
  4  7  2  0  0  0  0
  4  8  1  0  0  0  0
  5  9  1  0  0  0  0
  5 10  1  0  0  0  0
  6 11  2  0  0  0  0
  6 12  1  0  0  0  0
  8 13  1  0  0  0  0
  9 14  1  0  0  0  0
 10 15  2  0  0  0  0
 11 16  1  0  0  0  0
 12 17  1  0  0  0  0
 13 18  2  0  0  0  0
 13 19  1  0  0  0  0
 16 20  1  0  0  0  0
 16 21  1  0  0  0  0
 16 22  1  0  0  0  0
 21 23  1  0  0  0  0
  8  9  2  0  0  0  0
 11 15  1  0  0  0  0
 14 18  1  0  0  0  0
 17 20  1  0  0  0  0
M  END
>  <MolRegNo>
358740

>  <m>


>  <Value>
0

>  <Unit>


>  <Type>
Inhibition

>  <Ligand Efficiency>


>  <Binding Efficiency>


>  <Surface Efficiency>


>  <Assay Index>
678309

>  <Assay Category>


>  <Assay Organism>
SARS coronavirus

>  <Target ID>
20012

>  <Target Name>
SARS coronavirus 3C-like proteinase

>  <Target Organism>
SARS coronavirus

>  <Target Description>
Target is a single protein chain

>  <Sequence Accession>
P0C6U8

>  <Reference>
Bioorg. Med. Chem. 20 (19), 5928-5935 (2012)

>  <Pubmed ID>
22884354

>  <DOI>
10.1016/j.bmc.2012.07.038

>  <InChI-Key>
XDUXBBDRILEIEZ-UHFFFAOYSA-N

>  <Molecular Formula>
C19H18O4

>  <Monoisotopic Mass>
310.120510

>  <Druglikeness>
-12.76

$$$$
Compound 596
Actelion Java MolfileCreator 1.0

 23 26  0  0  0  0  0  0  0  0999 V2000
    0.0000   -0.0000   -0.0000 O   0  0  0  0  0  0  0  0  0  0  0  0
    1.2945   -0.7363   -0.0000 C   0  0  0  0  0  0  0  0  0  0  0  0
    1.2945   -2.2327   -0.0000 C   0  0  0  0  0  0  0  0  0  0  0  0
    2.5890    0.0356   -0.0000 C   0  0  0  0  0  0  0  0  0  0  0  0
    2.5890   -2.9690   -0.0000 C   0  0  0  0  0  0  0  0  0  0  0  0
   -0.0119   -2.9690   -0.0000 C   0  0  0  0  0  0  0  0  0  0  0  0
    2.5771    1.5558   -0.0000 O   0  0  0  0  0  0  0  0  0  0  0  0
    3.8835   -0.7007   -0.0000 C   0  0  0  0  0  0  0  0  0  0  0  0
    3.8716   -2.1971   -0.0000 C   0  0  0  0  0  0  0  0  0  0  0  0
    2.5771   -4.4654   -0.0000 C   0  0  0  0  0  0  0  0  0  0  0  0
   -0.0238   -4.4654   -0.0000 C   0  0  0  0  0  0  0  0  0  0  0  0
   -1.3182   -2.2090   -0.0000 C   0  0  0  0  0  0  0  0  0  0  0  0
    5.2968   -0.2256   -0.0000 C   0  0  0  0  0  0  0  0  0  0  0  0
    5.2849   -2.6484   -0.0000 O   0  0  0  0  0  0  0  0  0  0  0  0
    1.2589   -5.2017   -0.0000 C   0  0  0  0  0  0  0  0  0  0  0  0
   -1.3420   -5.2136   -0.0000 C   0  0  0  0  0  0  0  0  0  0  0  0
   -2.6365   -2.9453   -0.0000 C   0  0  0  0  0  0  0  0  0  0  0  0
    6.1637   -1.4251   -0.0000 C   0  0  0  0  0  0  0  0  0  0  0  0
    5.7480    1.2114   -0.0000 C   0  0  0  0  0  0  0  0  0  0  0  0
   -2.6603   -4.4417   -0.0000 C   0  0  0  0  0  0  0  0  0  0  0  0
   -2.4227   -6.2587   -0.0000 C   0  0  0  0  0  0  0  0  0  0  0  0
   -0.2969   -6.2706   -0.0000 C   0  0  0  0  0  0  0  0  0  0  0  0
   -3.8835   -5.8549   -0.0000 O   0  0  0  0  0  0  0  0  0  0  0  0
  1  2  2  0  0  0  0
  2  3  1  0  0  0  0
  2  4  1  0  0  0  0
  3  5  2  0  0  0  0
  3  6  1  0  0  0  0
  4  7  2  0  0  0  0
  4  8  1  0  0  0  0
  5  9  1  0  0  0  0
  5 10  1  0  0  0  0
  6 11  2  0  0  0  0
  6 12  1  0  0  0  0
  8 13  1  0  0  0  0
  9 14  1  0  0  0  0
 10 15  2  0  0  0  0
 11 16  1  0  0  0  0
 12 17  1  0  0  0  0
 13 18  2  0  0  0  0
 13 19  1  0  0  0  0
 16 20  1  0  0  0  0
 16 21  1  0  0  0  0
 16 22  1  0  0  0  0
 21 23  1  0  0  0  0
  8  9  2  0  0  0  0
 11 15  1  0  0  0  0
 14 18  1  0  0  0  0
 17 20  1  0  0  0  0
M  END
>  <MolRegNo>
358740

>  <m>


>  <Value>
0

>  <Unit>


>  <Type>
Inhibition

>  <Ligand Efficiency>


>  <Binding Efficiency>


>  <Surface Efficiency>


>  <Assay Index>
678312

>  <Assay Category>


>  <Assay Organism>
SARS coronavirus

>  <Target ID>
20012

>  <Target Name>
SARS coronavirus 3C-like proteinase

>  <Target Organism>
SARS coronavirus

>  <Target Description>
Target is a single protein chain

>  <Sequence Accession>
P0C6U8

>  <Reference>
Bioorg. Med. Chem. 20 (19), 5928-5935 (2012)

>  <Pubmed ID>
22884354

>  <DOI>
10.1016/j.bmc.2012.07.038

>  <InChI-Key>
XDUXBBDRILEIEZ-UHFFFAOYSA-N

>  <Molecular Formula>
C19H18O4

>  <Monoisotopic Mass>
310.120510

>  <Druglikeness>
-12.76

$$$$
Compound 597
Actelion Java MolfileCreator 1.0

 23 26  0  0  0  0  0  0  0  0999 V2000
    0.0000   -0.0000   -0.0000 O   0  0  0  0  0  0  0  0  0  0  0  0
    1.2945   -0.7363   -0.0000 C   0  0  0  0  0  0  0  0  0  0  0  0
    1.2945   -2.2327   -0.0000 C   0  0  0  0  0  0  0  0  0  0  0  0
    2.5890    0.0356   -0.0000 C   0  0  0  0  0  0  0  0  0  0  0  0
    2.5890   -2.9690   -0.0000 C   0  0  0  0  0  0  0  0  0  0  0  0
   -0.0119   -2.9690   -0.0000 C   0  0  0  0  0  0  0  0  0  0  0  0
    2.5771    1.5558   -0.0000 O   0  0  0  0  0  0  0  0  0  0  0  0
    3.8835   -0.7007   -0.0000 C   0  0  0  0  0  0  0  0  0  0  0  0
    3.8716   -2.1971   -0.0000 C   0  0  0  0  0  0  0  0  0  0  0  0
    2.5771   -4.4654   -0.0000 C   0  0  0  0  0  0  0  0  0  0  0  0
   -0.0238   -4.4654   -0.0000 C   0  0  0  0  0  0  0  0  0  0  0  0
   -1.3182   -2.2090   -0.0000 C   0  0  0  0  0  0  0  0  0  0  0  0
    5.2968   -0.2256   -0.0000 C   0  0  0  0  0  0  0  0  0  0  0  0
    5.2849   -2.6484   -0.0000 O   0  0  0  0  0  0  0  0  0  0  0  0
    1.2589   -5.2017   -0.0000 C   0  0  0  0  0  0  0  0  0  0  0  0
   -1.3420   -5.2136   -0.0000 C   0  0  0  0  0  0  0  0  0  0  0  0
   -2.6365   -2.9453   -0.0000 C   0  0  0  0  0  0  0  0  0  0  0  0
    6.1637   -1.4251   -0.0000 C   0  0  0  0  0  0  0  0  0  0  0  0
    5.7480    1.2114   -0.0000 C   0  0  0  0  0  0  0  0  0  0  0  0
   -2.6603   -4.4417   -0.0000 C   0  0  0  0  0  0  0  0  0  0  0  0
   -2.4227   -6.2587   -0.0000 C   0  0  0  0  0  0  0  0  0  0  0  0
   -0.2969   -6.2706   -0.0000 C   0  0  0  0  0  0  0  0  0  0  0  0
   -3.8835   -5.8549   -0.0000 O   0  0  0  0  0  0  0  0  0  0  0  0
  1  2  2  0  0  0  0
  2  3  1  0  0  0  0
  2  4  1  0  0  0  0
  3  5  2  0  0  0  0
  3  6  1  0  0  0  0
  4  7  2  0  0  0  0
  4  8  1  0  0  0  0
  5  9  1  0  0  0  0
  5 10  1  0  0  0  0
  6 11  2  0  0  0  0
  6 12  1  0  0  0  0
  8 13  1  0  0  0  0
  9 14  1  0  0  0  0
 10 15  2  0  0  0  0
 11 16  1  0  0  0  0
 12 17  1  0  0  0  0
 13 18  2  0  0  0  0
 13 19  1  0  0  0  0
 16 20  1  0  0  0  0
 16 21  1  0  0  0  0
 16 22  1  0  0  0  0
 21 23  1  0  0  0  0
  8  9  2  0  0  0  0
 11 15  1  0  0  0  0
 14 18  1  0  0  0  0
 17 20  1  0  0  0  0
M  END
>  <MolRegNo>
358740

>  <m>


>  <Value>
0

>  <Unit>


>  <Type>
Inhibition

>  <Ligand Efficiency>


>  <Binding Efficiency>


>  <Surface Efficiency>


>  <Assay Index>
678313

>  <Assay Category>


>  <Assay Organism>
SARS coronavirus

>  <Target ID>
20012

>  <Target Name>
SARS coronavirus 3C-like proteinase

>  <Target Organism>
SARS coronavirus

>  <Target Description>
Target is a single protein chain

>  <Sequence Accession>
P0C6U8

>  <Reference>
Bioorg. Med. Chem. 20 (19), 5928-5935 (2012)

>  <Pubmed ID>
22884354

>  <DOI>
10.1016/j.bmc.2012.07.038

>  <InChI-Key>
XDUXBBDRILEIEZ-UHFFFAOYSA-N

>  <Molecular Formula>
C19H18O4

>  <Monoisotopic Mass>
310.120510

>  <Druglikeness>
-12.76

$$$$
Compound 598
Actelion Java MolfileCreator 1.0

 23 26  0  0  0  0  0  0  0  0999 V2000
    0.0000   -0.0000   -0.0000 O   0  0  0  0  0  0  0  0  0  0  0  0
    1.2945   -0.7363   -0.0000 C   0  0  0  0  0  0  0  0  0  0  0  0
    1.2945   -2.2327   -0.0000 C   0  0  0  0  0  0  0  0  0  0  0  0
    2.5890    0.0356   -0.0000 C   0  0  0  0  0  0  0  0  0  0  0  0
    2.5890   -2.9690   -0.0000 C   0  0  0  0  0  0  0  0  0  0  0  0
   -0.0119   -2.9690   -0.0000 C   0  0  0  0  0  0  0  0  0  0  0  0
    2.5771    1.5558   -0.0000 O   0  0  0  0  0  0  0  0  0  0  0  0
    3.8835   -0.7007   -0.0000 C   0  0  0  0  0  0  0  0  0  0  0  0
    3.8716   -2.1971   -0.0000 C   0  0  0  0  0  0  0  0  0  0  0  0
    2.5771   -4.4654   -0.0000 C   0  0  0  0  0  0  0  0  0  0  0  0
   -0.0238   -4.4654   -0.0000 C   0  0  0  0  0  0  0  0  0  0  0  0
   -1.3182   -2.2090   -0.0000 C   0  0  0  0  0  0  0  0  0  0  0  0
    5.2968   -0.2256   -0.0000 C   0  0  0  0  0  0  0  0  0  0  0  0
    5.2849   -2.6484   -0.0000 O   0  0  0  0  0  0  0  0  0  0  0  0
    1.2589   -5.2017   -0.0000 C   0  0  0  0  0  0  0  0  0  0  0  0
   -1.3420   -5.2136   -0.0000 C   0  0  0  0  0  0  0  0  0  0  0  0
   -2.6365   -2.9453   -0.0000 C   0  0  0  0  0  0  0  0  0  0  0  0
    6.1637   -1.4251   -0.0000 C   0  0  0  0  0  0  0  0  0  0  0  0
    5.7480    1.2114   -0.0000 C   0  0  0  0  0  0  0  0  0  0  0  0
   -2.6603   -4.4417   -0.0000 C   0  0  0  0  0  0  0  0  0  0  0  0
   -2.4227   -6.2587   -0.0000 C   0  0  0  0  0  0  0  0  0  0  0  0
   -0.2969   -6.2706   -0.0000 C   0  0  0  0  0  0  0  0  0  0  0  0
   -3.8835   -5.8549   -0.0000 O   0  0  0  0  0  0  0  0  0  0  0  0
  1  2  2  0  0  0  0
  2  3  1  0  0  0  0
  2  4  1  0  0  0  0
  3  5  2  0  0  0  0
  3  6  1  0  0  0  0
  4  7  2  0  0  0  0
  4  8  1  0  0  0  0
  5  9  1  0  0  0  0
  5 10  1  0  0  0  0
  6 11  2  0  0  0  0
  6 12  1  0  0  0  0
  8 13  1  0  0  0  0
  9 14  1  0  0  0  0
 10 15  2  0  0  0  0
 11 16  1  0  0  0  0
 12 17  1  0  0  0  0
 13 18  2  0  0  0  0
 13 19  1  0  0  0  0
 16 20  1  0  0  0  0
 16 21  1  0  0  0  0
 16 22  1  0  0  0  0
 21 23  1  0  0  0  0
  8  9  2  0  0  0  0
 11 15  1  0  0  0  0
 14 18  1  0  0  0  0
 17 20  1  0  0  0  0
M  END
>  <MolRegNo>
358740

>  <m>


>  <Value>
0

>  <Unit>


>  <Type>
Inhibition

>  <Ligand Efficiency>


>  <Binding Efficiency>


>  <Surface Efficiency>


>  <Assay Index>
678191

>  <Assay Category>


>  <Assay Organism>
SARS coronavirus

>  <Target ID>
20012

>  <Target Name>
SARS coronavirus 3C-like proteinase

>  <Target Organism>
SARS coronavirus

>  <Target Description>
Target is a single protein chain

>  <Sequence Accession>
P0C6U8

>  <Reference>
Bioorg. Med. Chem. 20 (19), 5928-5935 (2012)

>  <Pubmed ID>
22884354

>  <DOI>
10.1016/j.bmc.2012.07.038

>  <InChI-Key>
XDUXBBDRILEIEZ-UHFFFAOYSA-N

>  <Molecular Formula>
C19H18O4

>  <Monoisotopic Mass>
310.120510

>  <Druglikeness>
-12.76

$$$$
Compound 599
Actelion Java MolfileCreator 1.0

 23 26  0  0  0  0  0  0  0  0999 V2000
    0.0000   -0.0000   -0.0000 O   0  0  0  0  0  0  0  0  0  0  0  0
    1.2945   -0.7363   -0.0000 C   0  0  0  0  0  0  0  0  0  0  0  0
    1.2945   -2.2327   -0.0000 C   0  0  0  0  0  0  0  0  0  0  0  0
    2.5890    0.0356   -0.0000 C   0  0  0  0  0  0  0  0  0  0  0  0
    2.5890   -2.9690   -0.0000 C   0  0  0  0  0  0  0  0  0  0  0  0
   -0.0119   -2.9690   -0.0000 C   0  0  0  0  0  0  0  0  0  0  0  0
    2.5771    1.5558   -0.0000 O   0  0  0  0  0  0  0  0  0  0  0  0
    3.8835   -0.7007   -0.0000 C   0  0  0  0  0  0  0  0  0  0  0  0
    3.8716   -2.1971   -0.0000 C   0  0  0  0  0  0  0  0  0  0  0  0
    2.5771   -4.4654   -0.0000 C   0  0  0  0  0  0  0  0  0  0  0  0
   -0.0238   -4.4654   -0.0000 C   0  0  0  0  0  0  0  0  0  0  0  0
   -1.3182   -2.2090   -0.0000 C   0  0  0  0  0  0  0  0  0  0  0  0
    5.2968   -0.2256   -0.0000 C   0  0  0  0  0  0  0  0  0  0  0  0
    5.2849   -2.6484   -0.0000 O   0  0  0  0  0  0  0  0  0  0  0  0
    1.2589   -5.2017   -0.0000 C   0  0  0  0  0  0  0  0  0  0  0  0
   -1.3420   -5.2136   -0.0000 C   0  0  0  0  0  0  0  0  0  0  0  0
   -2.6365   -2.9453   -0.0000 C   0  0  0  0  0  0  0  0  0  0  0  0
    6.1637   -1.4251   -0.0000 C   0  0  0  0  0  0  0  0  0  0  0  0
    5.7480    1.2114   -0.0000 C   0  0  0  0  0  0  0  0  0  0  0  0
   -2.6603   -4.4417   -0.0000 C   0  0  0  0  0  0  0  0  0  0  0  0
   -2.4227   -6.2587   -0.0000 C   0  0  0  0  0  0  0  0  0  0  0  0
   -0.2969   -6.2706   -0.0000 C   0  0  0  0  0  0  0  0  0  0  0  0
   -3.8835   -5.8549   -0.0000 O   0  0  0  0  0  0  0  0  0  0  0  0
  1  2  2  0  0  0  0
  2  3  1  0  0  0  0
  2  4  1  0  0  0  0
  3  5  2  0  0  0  0
  3  6  1  0  0  0  0
  4  7  2  0  0  0  0
  4  8  1  0  0  0  0
  5  9  1  0  0  0  0
  5 10  1  0  0  0  0
  6 11  2  0  0  0  0
  6 12  1  0  0  0  0
  8 13  1  0  0  0  0
  9 14  1  0  0  0  0
 10 15  2  0  0  0  0
 11 16  1  0  0  0  0
 12 17  1  0  0  0  0
 13 18  2  0  0  0  0
 13 19  1  0  0  0  0
 16 20  1  0  0  0  0
 16 21  1  0  0  0  0
 16 22  1  0  0  0  0
 21 23  1  0  0  0  0
  8  9  2  0  0  0  0
 11 15  1  0  0  0  0
 14 18  1  0  0  0  0
 17 20  1  0  0  0  0
M  END
>  <MolRegNo>
358740

>  <m>
=

>  <Value>
21600

>  <Unit>
nM

>  <Type>
Ki

>  <Ligand Efficiency>
0.28

>  <Binding Efficiency>
15.03

>  <Surface Efficiency>
6.91

>  <Assay Index>
678192

>  <Assay Category>


>  <Assay Organism>
SARS coronavirus

>  <Target ID>
20012

>  <Target Name>
SARS coronavirus 3C-like proteinase

>  <Target Organism>
SARS coronavirus

>  <Target Description>
Target is a single protein chain

>  <Sequence Accession>
P0C6U8

>  <Reference>
Bioorg. Med. Chem. 20 (19), 5928-5935 (2012)

>  <Pubmed ID>
22884354

>  <DOI>
10.1016/j.bmc.2012.07.038

>  <InChI-Key>
XDUXBBDRILEIEZ-UHFFFAOYSA-N

>  <Molecular Formula>
C19H18O4

>  <Monoisotopic Mass>
310.120510

>  <Druglikeness>
-12.76

$$$$
Compound 600
Actelion Java MolfileCreator 1.0

 27 30  0  0  0  0  0  0  0  0999 V2000
    0.0000   -0.0000   -0.0000 S   0  0  0  0  0  0  0  0  0  0  0  0
   -0.0118   -1.4802   -0.0000 C   0  0  0  0  0  0  0  0  0  0  0  0
   -1.4446    0.4855   -0.0000 C   0  0  0  0  0  0  0  0  0  0  0  0
   -1.4565   -1.9301   -0.0000 C   0  0  0  0  0  0  0  0  0  0  0  0
    1.0894   -2.4511   -0.0000 C   0  0  0  0  0  0  0  0  0  0  0  0
   -1.9183    1.9064   -0.0000 C   0  0  0  0  0  0  0  0  0  0  0  0
   -2.3209   -0.7223   -0.0000 C   0  0  0  0  0  0  0  0  0  0  0  0
   -1.7762   -3.3747   -0.0000 C   0  0  0  0  0  0  0  0  0  0  0  0
    0.7697   -3.9076   -0.0000 C   0  0  0  0  0  0  0  0  0  0  0  0
   -0.9236    3.0432   -0.0000 O   0  0  0  0  0  0  0  0  0  0  0  0
   -3.3984    2.2261   -0.0000 C   0  0  0  0  0  0  0  0  0  0  0  0
   -0.6749   -4.3576   -0.0000 C   0  0  0  0  0  0  0  0  0  0  0  0
   -3.8721    3.6708   -0.0000 N   0  0  0  0  0  0  0  0  0  0  0  0
   -2.9958    4.8904   -0.0000 C   0  0  0  0  0  0  0  0  0  0  0  0
   -5.3049    4.1444   -0.0000 C   0  0  0  0  0  0  0  0  0  0  0  0
   -1.5157    4.9023   -0.0000 O   0  0  0  0  0  0  0  0  0  0  0  0
   -3.8958    6.1219   -0.0000 C   0  0  0  0  0  0  0  0  0  0  0  0
   -6.6192    3.3984   -0.0000 C   0  0  0  0  0  0  0  0  0  0  0  0
   -5.3167    5.6483   -0.0000 C   0  0  0  0  0  0  0  0  0  0  0  0
   -3.4458    7.5665   -0.0000 O   0  0  0  0  0  0  0  0  0  0  0  0
   -6.6192    1.9183   -0.0000 N   0  0  0  0  0  0  0  0  0  0  0  0
   -7.9218    4.1563   -0.0000 C   0  0  0  0  0  0  0  0  0  0  0  0
   -6.6311    6.4061   -0.0000 C   0  0  0  0  0  0  0  0  0  0  0  0
   -5.3404    1.1841   -0.0000 O   0  0  0  0  0  0  0  0  0  0  0  0
   -7.9218    1.1841   -0.0000 O   0  0  0  0  0  0  0  0  0  0  0  0
   -7.9336    5.6719   -0.0000 C   0  0  0  0  0  0  0  0  0  0  0  0
   -9.2362    6.4298   -0.0000 C   0  0  0  0  0  0  0  0  0  0  0  0
  1  2  1  0  0  0  0
  1  3  1  0  0  0  0
  2  4  2  0  0  0  0
  2  5  1  0  0  0  0
  3  6  1  0  0  0  0
  3  7  2  0  0  0  0
  4  8  1  0  0  0  0
  5  9  2  0  0  0  0
  6 10  2  0  0  0  0
  6 11  1  0  0  0  0
  8 12  2  0  0  0  0
 11 13  1  0  0  0  0
 13 14  1  0  0  0  0
 13 15  1  0  0  0  0
 14 16  2  0  0  0  0
 14 17  1  0  0  0  0
 15 18  2  0  0  0  0
 15 19  1  0  0  0  0
 17 20  2  0  0  0  0
 18 21  1  0  0  0  0
 18 22  1  0  0  0  0
 19 23  2  0  0  0  0
 21 24  2  0  0  0  0
 21 25  1  0  0  0  0
 22 26  2  0  0  0  0
 26 27  1  0  0  0  0
  4  7  1  0  0  0  0
  9 12  1  0  0  0  0
 17 19  1  0  0  0  0
 23 26  1  0  0  0  0
M  CHG  2  21   1  25  -1
M  END
>  <MolRegNo>
317405

>  <m>
=

>  <Value>
40

>  <Unit>
%

>  <Type>
Inhibition

>  <Ligand Efficiency>


>  <Binding Efficiency>


>  <Surface Efficiency>


>  <Assay Index>
240686

>  <Assay Category>


>  <Assay Organism>
SARS coronavirus

>  <Target ID>
20012

>  <Target Name>
SARS coronavirus 3C-like proteinase

>  <Target Organism>
SARS coronavirus

>  <Target Description>
Target is a single protein chain

>  <Sequence Accession>
P0C6U8

>  <Reference>
Bioorg. Med. Chem. Lett. 15 (12), 3058-3062 (2005)

>  <Pubmed ID>
15896959

>  <DOI>
10.1016/j.bmcl.2005.04.027

>  <InChI-Key>
XEVFUFOADRVCGQ-UHFFFAOYSA-N

>  <Molecular Formula>
C19H12N2O5S

>  <Monoisotopic Mass>
380.046693

>  <Druglikeness>
-3.2849

$$$$
Compound 601
Actelion Java MolfileCreator 1.0

 19 21  0  0  1  0  0  0  0  0999 V2000
    0.0000   -0.0000   -0.0000 Cl  0  0  0  0  0  0  0  0  0  0  0  0
   -1.2333   -0.8947   -0.0000 C   0  0  0  0  0  0  0  0  0  0  0  0
   -1.0882   -2.3335   -0.0000 N   0  0  0  0  0  0  0  0  0  0  0  0
   -2.6358   -0.2902   -0.0000 C   0  0  0  0  0  0  0  0  0  0  0  0
   -2.3335   -3.1799   -0.0000 C   0  0  0  0  0  0  0  0  0  0  0  0
   -3.1315    1.1123   -0.0000 N   0  0  0  0  0  0  0  0  0  0  0  0
   -3.8811   -1.1486   -0.0000 C   0  0  0  0  0  0  0  0  0  0  0  0
   -3.7481   -2.5753   -0.0000 N   0  0  0  0  0  0  0  0  0  0  0  0
   -4.6670    1.1244   -0.0000 C   0  0  0  0  0  0  0  0  0  0  0  0
   -5.1265   -0.2781   -0.0000 N   0  0  0  0  0  0  0  0  0  0  0  0
   -6.5894   -0.7254   -0.0000 C   0  0  0  0  0  0  0  0  0  0  0  0
   -7.8469    0.1451   -0.0000 O   0  0  0  0  0  0  0  0  0  0  0  0
   -7.0731   -2.1038   -0.0000 C   0  0  0  0  0  0  0  0  0  0  0  0
   -9.0922   -0.7134   -0.0000 C   0  0  0  0  0  0  0  0  0  0  0  0
   -6.1905   -3.2766   -0.0000 O   0  0  0  0  0  0  0  0  0  0  0  0
   -8.6207   -2.0917   -0.0000 C   0  0  0  0  0  0  0  0  0  0  0  0
  -10.5552   -0.2418   -0.0000 C   0  0  0  0  0  0  0  0  0  0  0  0
   -9.5154   -3.2645   -0.0000 O   0  0  0  0  0  0  0  0  0  0  0  0
  -10.8937    1.1970   -0.0000 O   0  0  0  0  0  0  0  0  0  0  0  0
  1  2  1  0  0  0  0
  2  3  2  0  0  0  0
  2  4  1  0  0  0  0
  3  5  1  0  0  0  0
  4  6  1  0  0  0  0
  4  7  2  0  0  0  0
  5  8  2  0  0  0  0
  6  9  2  0  0  0  0
  7 10  1  0  0  0  0
 11 10  1  1  0  0  0
 11 12  1  0  0  0  0
 11 13  1  0  0  0  0
 12 14  1  0  0  0  0
 13 15  1  6  0  0  0
 13 16  1  0  0  0  0
 14 17  1  1  0  0  0
 16 18  1  6  0  0  0
 17 19  1  0  0  0  0
  7  8  1  0  0  0  0
  9 10  1  0  0  0  0
 14 16  1  0  0  0  0
M  END
>  <MolRegNo>
386739

>  <m>


>  <Value>
0

>  <Unit>


>  <Type>
Activity

>  <Ligand Efficiency>


>  <Binding Efficiency>


>  <Surface Efficiency>


>  <Assay Index>
287339

>  <Assay Category>


>  <Assay Organism>
SARS coronavirus

>  <Target ID>
100499

>  <Target Name>
SARS coronavirus

>  <Target Organism>
SARS coronavirus

>  <Target Description>
Target is a complete organism

>  <Sequence Accession>


>  <Reference>
Bioorg. Med. Chem. Lett. 17 (9), 2470-2473 (2007)

>  <Pubmed ID>
17336519

>  <DOI>
10.1016/j.bmcl.2007.02.026

>  <InChI-Key>
XHRJGHCQQPETRH-FCIPNVEPSA-N

>  <Molecular Formula>
C10H11N4O4Cl

>  <Monoisotopic Mass>
286.046883

>  <Druglikeness>
-0.84572

$$$$
Compound 602
Actelion Java MolfileCreator 1.0

 19 21  0  0  1  0  0  0  0  0999 V2000
    0.0000   -0.0000   -0.0000 Cl  0  0  0  0  0  0  0  0  0  0  0  0
   -1.2333   -0.8947   -0.0000 C   0  0  0  0  0  0  0  0  0  0  0  0
   -1.0882   -2.3335   -0.0000 N   0  0  0  0  0  0  0  0  0  0  0  0
   -2.6358   -0.2902   -0.0000 C   0  0  0  0  0  0  0  0  0  0  0  0
   -2.3335   -3.1799   -0.0000 C   0  0  0  0  0  0  0  0  0  0  0  0
   -3.1315    1.1123   -0.0000 N   0  0  0  0  0  0  0  0  0  0  0  0
   -3.8811   -1.1486   -0.0000 C   0  0  0  0  0  0  0  0  0  0  0  0
   -3.7481   -2.5753   -0.0000 N   0  0  0  0  0  0  0  0  0  0  0  0
   -4.6670    1.1244   -0.0000 C   0  0  0  0  0  0  0  0  0  0  0  0
   -5.1265   -0.2781   -0.0000 N   0  0  0  0  0  0  0  0  0  0  0  0
   -6.5894   -0.7254   -0.0000 C   0  0  0  0  0  0  0  0  0  0  0  0
   -7.8469    0.1451   -0.0000 O   0  0  0  0  0  0  0  0  0  0  0  0
   -7.0731   -2.1038   -0.0000 C   0  0  0  0  0  0  0  0  0  0  0  0
   -9.0922   -0.7134   -0.0000 C   0  0  0  0  0  0  0  0  0  0  0  0
   -6.1905   -3.2766   -0.0000 O   0  0  0  0  0  0  0  0  0  0  0  0
   -8.6207   -2.0917   -0.0000 C   0  0  0  0  0  0  0  0  0  0  0  0
  -10.5552   -0.2418   -0.0000 C   0  0  0  0  0  0  0  0  0  0  0  0
   -9.5154   -3.2645   -0.0000 O   0  0  0  0  0  0  0  0  0  0  0  0
  -10.8937    1.1970   -0.0000 O   0  0  0  0  0  0  0  0  0  0  0  0
  1  2  1  0  0  0  0
  2  3  2  0  0  0  0
  2  4  1  0  0  0  0
  3  5  1  0  0  0  0
  4  6  1  0  0  0  0
  4  7  2  0  0  0  0
  5  8  2  0  0  0  0
  6  9  2  0  0  0  0
  7 10  1  0  0  0  0
 11 10  1  1  0  0  0
 11 12  1  0  0  0  0
 11 13  1  0  0  0  0
 12 14  1  0  0  0  0
 13 15  1  6  0  0  0
 13 16  1  0  0  0  0
 14 17  1  1  0  0  0
 16 18  1  6  0  0  0
 17 19  1  0  0  0  0
  7  8  1  0  0  0  0
  9 10  1  0  0  0  0
 14 16  1  0  0  0  0
M  END
>  <MolRegNo>
386739

>  <m>
=

>  <Value>
48700

>  <Unit>
nM

>  <Type>
IC50

>  <Ligand Efficiency>


>  <Binding Efficiency>


>  <Surface Efficiency>


>  <Assay Index>
287336

>  <Assay Category>


>  <Assay Organism>
SARS coronavirus

>  <Target ID>
100499

>  <Target Name>
SARS coronavirus

>  <Target Organism>
SARS coronavirus

>  <Target Description>
Target is a complete organism

>  <Sequence Accession>


>  <Reference>
Bioorg. Med. Chem. Lett. 17 (9), 2470-2473 (2007)

>  <Pubmed ID>
17336519

>  <DOI>
10.1016/j.bmcl.2007.02.026

>  <InChI-Key>
XHRJGHCQQPETRH-FCIPNVEPSA-N

>  <Molecular Formula>
C10H11N4O4Cl

>  <Monoisotopic Mass>
286.046883

>  <Druglikeness>
-0.84572

$$$$
Compound 603
Actelion Java MolfileCreator 1.0

 21 23  0  0  0  0  0  0  0  0999 V2000
    0.0000   -0.0000   -0.0000 O   0  0  0  0  0  0  0  0  0  0  0  0
    1.2224   -0.8713   -0.0000 C   0  0  0  0  0  0  0  0  0  0  0  0
   -1.1834   -0.8713   -0.0000 C   0  0  0  0  0  0  0  0  0  0  0  0
    1.6905    0.5202   -0.0000 C   0  0  0  0  0  0  0  0  0  0  0  0
    2.4708   -1.6515   -0.0000 C   0  0  0  0  0  0  0  0  0  0  0  0
    0.7802   -2.2107   -0.0000 C   0  0  0  0  0  0  0  0  0  0  0  0
   -0.7152   -2.2497   -0.0000 C   0  0  0  0  0  0  0  0  0  0  0  0
   -2.6268   -0.4161   -0.0000 C   0  0  0  0  0  0  0  0  0  0  0  0
    3.0040    0.9363   -0.0000 N   0  0  0  0  0  0  0  0  0  0  0  0
    0.8193    1.8596   -0.0000 C   0  0  0  0  0  0  0  0  0  0  0  0
    3.7842   -0.9363   -0.0000 C   0  0  0  0  0  0  0  0  0  0  0  0
    1.2354   -3.6152   -0.0000 O   0  0  0  0  0  0  0  0  0  0  0  0
   -1.1834   -3.6542   -0.0000 O   0  0  0  0  0  0  0  0  0  0  0  0
   -2.9780    1.0533   -0.0000 O   0  0  0  0  0  0  0  0  0  0  0  0
    4.2654    0.1170   -0.0000 N   0  0  0  0  0  0  0  0  0  0  0  0
    3.0430    2.6008   -0.0000 C   0  0  0  0  0  0  0  0  0  0  0  0
    1.7816    3.0820   -0.0000 C   0  0  0  0  0  0  0  0  0  0  0  0
    5.6308    0.8583   -0.0000 C   0  0  0  0  0  0  0  0  0  0  0  0
    4.3304    3.3031   -0.0000 C   0  0  0  0  0  0  0  0  0  0  0  0
    5.6698    2.4578   -0.0000 N   0  0  0  0  0  0  0  0  0  0  0  0
    4.3564    4.7985   -0.0000 N   0  0  0  0  0  0  0  0  0  0  0  0
  1  2  1  0  0  0  0
  1  3  1  0  0  0  0
  2  4  1  0  0  0  0
  2  5  1  6  0  0  0
  2  6  1  0  0  0  0
  3  7  1  0  0  0  0
  3  8  1  1  0  0  0
  4  9  1  0  0  0  0
  4 10  2  0  0  0  0
  5 11  2  0  0  0  0
  6 12  1  6  0  0  0
  7 13  1  6  0  0  0
  8 14  1  0  0  0  0
  9 15  1  0  0  0  0
  9 16  1  0  0  0  0
 10 17  1  0  0  0  0
 15 18  2  0  0  0  0
 16 19  1  0  0  0  0
 18 20  1  0  0  0  0
 19 21  1  0  0  0  0
  6  7  1  0  0  0  0
 16 17  2  0  0  0  0
 19 20  2  0  0  0  0
M  END
>  <MolRegNo>
1334476

>  <m>
=

>  <Value>
14000

>  <Unit>
nM

>  <Type>
EC50

>  <Ligand Efficiency>


>  <Binding Efficiency>


>  <Surface Efficiency>


>  <Assay Index>
648311

>  <Assay Category>


>  <Assay Organism>
SARS coronavirus

>  <Target ID>
100499

>  <Target Name>
SARS coronavirus

>  <Target Organism>
SARS coronavirus

>  <Target Description>
Target is a complete organism

>  <Sequence Accession>


>  <Reference>
Bioorg. Med. Chem. Lett. 22 (8), 2705-2707 (2012)

>  <Pubmed ID>
22446091

>  <DOI>
10.1016/j.bmcl.2012.02.105

>  <InChI-Key>
XIBLCLHWSMWYFL-BQUSMCMVSA-N

>  <Molecular Formula>
C13H16N4O4

>  <Monoisotopic Mass>
292.117156

>  <Druglikeness>
-3.4861

$$$$
Compound 604
Actelion Java MolfileCreator 1.0

 29 32  0  0  0  0  0  0  0  0999 V2000
    0.0000   -0.0000   -0.0000 F   0  0  0  0  0  0  0  0  0  0  0  0
   -1.3043   -0.7470   -0.0000 C   0  0  0  0  0  0  0  0  0  0  0  0
   -2.6085   -0.0000   -0.0000 C   0  0  0  0  0  0  0  0  0  0  0  0
   -1.3161   -2.2291   -0.0000 C   0  0  0  0  0  0  0  0  0  0  0  0
   -3.9128   -0.7351   -0.0000 C   0  0  0  0  0  0  0  0  0  0  0  0
   -2.6204   -2.9761   -0.0000 C   0  0  0  0  0  0  0  0  0  0  0  0
   -3.9247   -2.2173   -0.0000 C   0  0  0  0  0  0  0  0  0  0  0  0
   -5.2171    0.0237   -0.0000 C   0  0  0  0  0  0  0  0  0  0  0  0
   -6.5213   -0.7114   -0.0000 N   0  0  0  0  0  0  0  0  0  0  0  0
   -7.8256    0.0474   -0.0000 C   0  0  0  0  0  0  0  0  0  0  0  0
   -7.8375    1.5533   -0.0000 O   0  0  0  0  0  0  0  0  0  0  0  0
   -9.1299   -0.6877   -0.0000 C   0  0  0  0  0  0  0  0  0  0  0  0
   -9.1417   -2.1698   -0.0000 C   0  0  0  0  0  0  0  0  0  0  0  0
  -10.4460    0.0711   -0.0000 C   0  0  0  0  0  0  0  0  0  0  0  0
  -10.4460   -2.9050   -0.0000 C   0  0  0  0  0  0  0  0  0  0  0  0
  -11.7621   -0.6640   -0.0000 C   0  0  0  0  0  0  0  0  0  0  0  0
  -11.7621   -2.1461   -0.0000 N   0  0  0  0  0  0  0  0  0  0  0  0
  -13.0664   -2.8931   -0.0000 C   0  0  0  0  0  0  0  0  0  0  0  0
  -13.0664   -4.3752   -0.0000 C   0  0  0  0  0  0  0  0  0  0  0  0
  -14.3825   -2.1343   -0.0000 C   0  0  0  0  0  0  0  0  0  0  0  0
  -14.3707   -5.1104   -0.0000 C   0  0  0  0  0  0  0  0  0  0  0  0
  -11.7740   -5.0985   -0.0000 C   0  0  0  0  0  0  0  0  0  0  0  0
  -14.3825   -6.6043   -0.0000 C   0  0  0  0  0  0  0  0  0  0  0  0
  -15.6749   -4.3515   -0.0000 C   0  0  0  0  0  0  0  0  0  0  0  0
  -11.7740   -6.5925   -0.0000 C   0  0  0  0  0  0  0  0  0  0  0  0
  -13.1020   -7.3395   -0.0000 C   0  0  0  0  0  0  0  0  0  0  0  0
  -15.6868   -7.3513   -0.0000 C   0  0  0  0  0  0  0  0  0  0  0  0
  -16.9792   -5.0866   -0.0000 C   0  0  0  0  0  0  0  0  0  0  0  0
  -16.9911   -6.5925   -0.0000 C   0  0  0  0  0  0  0  0  0  0  0  0
  1  2  1  0  0  0  0
  2  3  2  0  0  0  0
  2  4  1  0  0  0  0
  3  5  1  0  0  0  0
  4  6  2  0  0  0  0
  5  7  2  0  0  0  0
  5  8  1  0  0  0  0
  8  9  1  0  0  0  0
  9 10  1  0  0  0  0
 10 11  2  0  0  0  0
 10 12  1  0  0  0  0
 12 13  1  0  0  0  0
 12 14  1  0  0  0  0
 13 15  1  0  0  0  0
 14 16  1  0  0  0  0
 15 17  1  0  0  0  0
 18 17  1  6  0  0  0
 18 19  1  0  0  0  0
 18 20  1  0  0  0  0
 19 21  1  0  0  0  0
 19 22  2  0  0  0  0
 21 23  1  0  0  0  0
 21 24  2  0  0  0  0
 22 25  1  0  0  0  0
 23 26  1  0  0  0  0
 23 27  2  0  0  0  0
 24 28  1  0  0  0  0
 27 29  1  0  0  0  0
  6  7  1  0  0  0  0
 16 17  1  0  0  0  0
 25 26  2  0  0  0  0
 28 29  2  0  0  0  0
M  END
>  <MolRegNo>
1732322

>  <m>
=

>  <Value>
5400

>  <Unit>
nM

>  <Type>
EC50

>  <Ligand Efficiency>


>  <Binding Efficiency>


>  <Surface Efficiency>


>  <Assay Index>
843084

>  <Assay Category>


>  <Assay Organism>
SARS coronavirus

>  <Target ID>
100499

>  <Target Name>
SARS coronavirus

>  <Target Organism>
SARS coronavirus

>  <Target Description>
Target is a complete organism

>  <Sequence Accession>


>  <Reference>
J. Med. Chem. 57 (6), 2393-2412 (2014)

>  <Pubmed ID>
24568342

>  <DOI>
10.1021/jm401712t

>  <InChI-Key>
XJTWGMHOQKGBDO-SFHVURJKSA-N

>  <Molecular Formula>
C25H27N2OF

>  <Monoisotopic Mass>
390.210741

>  <Druglikeness>
5.4254

$$$$
Compound 605
Actelion Java MolfileCreator 1.0

 34 38  0  0  0  0  0  0  0  0999 V2000
    0.0000   -0.0000   -0.0000 F   0  0  0  0  0  0  0  0  0  0  0  0
    0.0845    1.2307   -0.0000 C   0  0  0  0  0  0  0  0  0  0  0  0
    1.4479    1.9064   -0.0000 C   0  0  0  0  0  0  0  0  0  0  0  0
   -1.1945    2.0995   -0.0000 C   0  0  0  0  0  0  0  0  0  0  0  0
    1.5445    3.4509   -0.0000 C   0  0  0  0  0  0  0  0  0  0  0  0
   -1.0980    3.6439   -0.0000 C   0  0  0  0  0  0  0  0  0  0  0  0
    0.2655    4.3196   -0.0000 C   0  0  0  0  0  0  0  0  0  0  0  0
    0.2534    5.8641   -0.0000 N   0  0  0  0  0  0  0  0  0  0  0  0
   -1.0015    6.7811   -0.0000 N   0  0  0  0  0  0  0  0  0  0  0  0
    1.4841    6.7811   -0.0000 C   0  0  0  0  0  0  0  0  0  0  0  0
   -0.5430    8.2532   -0.0000 C   0  0  0  0  0  0  0  0  0  0  0  0
    2.6425    6.4191   -0.0000 O   0  0  0  0  0  0  0  0  0  0  0  0
    0.9894    8.2290   -0.0000 C   0  0  0  0  0  0  0  0  0  0  0  0
   -1.4479    9.5080   -0.0000 C   0  0  0  0  0  0  0  0  0  0  0  0
    1.8702    9.4839   -0.0000 C   0  0  0  0  0  0  0  0  0  0  0  0
   -0.9412   10.9560   -0.0000 C   0  0  0  0  0  0  0  0  0  0  0  0
   -2.9682    9.2426   -0.0000 C   0  0  0  0  0  0  0  0  0  0  0  0
    3.3785    9.3391   -0.0000 C   0  0  0  0  0  0  0  0  0  0  0  0
   -1.9426   12.1384   -0.0000 C   0  0  0  0  0  0  0  0  0  0  0  0
   -3.9697   10.4251   -0.0000 C   0  0  0  0  0  0  0  0  0  0  0  0
    4.3920   10.4854   -0.0000 O   0  0  0  0  0  0  0  0  0  0  0  0
    4.1387    8.0239   -0.0000 C   0  0  0  0  0  0  0  0  0  0  0  0
   -3.4630   11.8730   -0.0000 C   0  0  0  0  0  0  0  0  0  0  0  0
    5.7555    9.8700   -0.0000 C   0  0  0  0  0  0  0  0  0  0  0  0
    5.6228    8.3618   -0.0000 C   0  0  0  0  0  0  0  0  0  0  0  0
    7.0707   10.6422   -0.0000 C   0  0  0  0  0  0  0  0  0  0  0  0
    8.3859    9.8942   -0.0000 C   0  0  0  0  0  0  0  0  0  0  0  0
    7.0586   12.1867   -0.0000 C   0  0  0  0  0  0  0  0  0  0  0  0
    8.3738    8.3738   -0.0000 C   0  0  0  0  0  0  0  0  0  0  0  0
    9.7011   10.6664   -0.0000 C   0  0  0  0  0  0  0  0  0  0  0  0
    8.3738   12.9589   -0.0000 C   0  0  0  0  0  0  0  0  0  0  0  0
    9.4236    7.7705   -0.0000 O   0  0  0  0  0  0  0  0  0  0  0  0
    7.3000    7.7705   -0.0000 O   0  0  0  0  0  0  0  0  0  0  0  0
    9.6890   12.2108   -0.0000 C   0  0  0  0  0  0  0  0  0  0  0  0
  1  2  1  0  0  0  0
  2  3  2  0  0  0  0
  2  4  1  0  0  0  0
  3  5  1  0  0  0  0
  4  6  2  0  0  0  0
  5  7  2  0  0  0  0
  7  8  1  0  0  0  0
  8  9  1  0  0  0  0
  8 10  1  0  0  0  0
  9 11  2  0  0  0  0
 10 12  2  0  0  0  0
 10 13  1  0  0  0  0
 11 14  1  0  0  0  0
 13 15  2  0  0  0  0
 14 16  2  0  0  0  0
 14 17  1  0  0  0  0
 15 18  1  0  0  0  0
 16 19  1  0  0  0  0
 17 20  2  0  0  0  0
 18 21  1  0  0  0  0
 18 22  2  0  0  0  0
 19 23  2  0  0  0  0
 21 24  1  0  0  0  0
 22 25  1  0  0  0  0
 24 26  1  0  0  0  0
 26 27  2  0  0  0  0
 26 28  1  0  0  0  0
 27 29  1  0  0  0  0
 27 30  1  0  0  0  0
 28 31  2  0  0  0  0
 29 32  2  0  0  0  0
 29 33  1  0  0  0  0
 30 34  2  0  0  0  0
  6  7  1  0  0  0  0
 11 13  1  0  0  0  0
 20 23  1  0  0  0  0
 24 25  2  0  0  0  0
 31 34  1  0  0  0  0
M  END
>  <MolRegNo>
2087898

>  <m>
=

>  <Value>
37500

>  <Unit>
nM

>  <Type>
IC50

>  <Ligand Efficiency>
0.18

>  <Binding Efficiency>
9.78

>  <Surface Efficiency>
5.33

>  <Assay Index>
1017144

>  <Assay Category>


>  <Assay Organism>
SARS coronavirus

>  <Target ID>
101075

>  <Target Name>
Replicase polyprotein 1ab

>  <Target Organism>
SARS coronavirus

>  <Target Description>
Target is a single protein chain

>  <Sequence Accession>
P0C6X7

>  <Reference>
Bioorg. Med. Chem. 24 (13), 3035-3042 (2016)

>  <Pubmed ID>
27240464

>  <DOI>
10.1016/j.bmc.2016.05.013

>  <InChI-Key>
XKQCHIXXQNMHLJ-UHFFFAOYSA-N

>  <Molecular Formula>
C27H17N2O4F

>  <Monoisotopic Mass>
452.117236

>  <Druglikeness>
3.6303

$$$$
Compound 606
Actelion Java MolfileCreator 1.0

 16 17  0  0  0  0  0  0  0  0999 V2000
    0.0000   -0.0000   -0.0000 Br  0  0  0  0  0  0  0  0  0  0  0  0
    0.0237   -1.4902   -0.0000 C   0  0  0  0  0  0  0  0  0  0  0  0
    1.3364   -2.1998   -0.0000 C   0  0  0  0  0  0  0  0  0  0  0  0
   -1.2655   -2.2589   -0.0000 C   0  0  0  0  0  0  0  0  0  0  0  0
    1.3483   -3.6900   -0.0000 N   0  0  0  0  0  0  0  0  0  0  0  0
   -1.2418   -3.7373   -0.0000 C   0  0  0  0  0  0  0  0  0  0  0  0
    0.0473   -4.4469   -0.0000 C   0  0  0  0  0  0  0  0  0  0  0  0
   -2.5546   -4.4824   -0.0000 C   0  0  0  0  0  0  0  0  0  0  0  0
   -3.8674   -3.7254   -0.0000 O   0  0  0  0  0  0  0  0  0  0  0  0
   -5.1801   -4.4587   -0.0000 C   0  0  0  0  0  0  0  0  0  0  0  0
   -5.1920   -5.9489   -0.0000 O   0  0  0  0  0  0  0  0  0  0  0  0
   -6.4929   -3.7018   -0.0000 C   0  0  0  0  0  0  0  0  0  0  0  0
   -7.8648   -4.3050   -0.0000 O   0  0  0  0  0  0  0  0  0  0  0  0
   -6.6585   -2.1998   -0.0000 C   0  0  0  0  0  0  0  0  0  0  0  0
   -8.8819   -3.1814   -0.0000 C   0  0  0  0  0  0  0  0  0  0  0  0
   -8.1368   -1.8805   -0.0000 C   0  0  0  0  0  0  0  0  0  0  0  0
  1  2  1  0  0  0  0
  2  3  2  0  0  0  0
  2  4  1  0  0  0  0
  3  5  1  0  0  0  0
  4  6  2  0  0  0  0
  5  7  2  0  0  0  0
  6  8  1  0  0  0  0
  8  9  1  0  0  0  0
  9 10  1  0  0  0  0
 10 11  2  0  0  0  0
 10 12  1  0  0  0  0
 12 13  1  0  0  0  0
 12 14  2  0  0  0  0
 13 15  1  0  0  0  0
 14 16  1  0  0  0  0
  6  7  1  0  0  0  0
 15 16  2  0  0  0  0
M  END
>  <MolRegNo>
371870

>  <m>
=

>  <Value>
90

>  <Unit>
%

>  <Type>
Inhibition

>  <Ligand Efficiency>


>  <Binding Efficiency>


>  <Surface Efficiency>


>  <Assay Index>
278390

>  <Assay Category>


>  <Assay Organism>
SARS coronavirus

>  <Target ID>
20012

>  <Target Name>
SARS coronavirus 3C-like proteinase

>  <Target Organism>
SARS coronavirus

>  <Target Description>
Target is a single protein chain

>  <Sequence Accession>
P0C6U8

>  <Reference>
J. Med. Chem. 50 (8), 1850-1864 (2007)

>  <Pubmed ID>
17381079

>  <DOI>
10.1021/jm061425k

>  <InChI-Key>
XKZSSKBZDLVNEB-UHFFFAOYSA-N

>  <Molecular Formula>
C11H8NO3Br

>  <Monoisotopic Mass>
280.968755

>  <Druglikeness>
-2.1952

$$$$
Compound 607
Actelion Java MolfileCreator 1.0

 25 27  0  0  1  0  0  0  0  0999 V2000
    0.0000   -0.0000   -0.0000 O   0  0  0  0  0  0  0  0  0  0  0  0
   -0.0119    1.5169   -0.0000 C   0  0  0  0  0  0  0  0  0  0  0  0
    1.2799    2.2754   -0.0000 N   0  0  0  0  0  0  0  0  0  0  0  0
   -1.3154    2.2754   -0.0000 C   0  0  0  0  0  0  0  0  0  0  0  0
    2.5716    1.5406   -0.0000 C   0  0  0  0  0  0  0  0  0  0  0  0
   -2.0739    3.5908   -0.0000 O   0  0  0  0  0  0  0  0  0  0  0  0
   -2.8324    2.2872   -0.0000 C   0  0  0  0  0  0  0  0  0  0  0  0
    3.8634    2.2991   -0.0000 C   0  0  0  0  0  0  0  0  0  0  0  0
    2.5598    0.0474   -0.0000 C   0  0  0  0  0  0  0  0  0  0  0  0
   -4.1478    1.5406   -0.0000 C   0  0  0  0  0  0  0  0  0  0  0  0
    3.8515    3.8160   -0.0000 O   0  0  0  0  0  0  0  0  0  0  0  0
    5.1551    1.5525   -0.0000 O   0  0  0  0  0  0  0  0  0  0  0  0
    3.8515   -0.6992   -0.0000 C   0  0  0  0  0  0  0  0  0  0  0  0
    6.4469    2.3109   -0.0000 C   0  0  0  0  0  0  0  0  0  0  0  0
    3.8397   -2.1924   -0.0000 C   0  0  0  0  0  0  0  0  0  0  0  0
    5.1433    0.0593   -0.0000 C   0  0  0  0  0  0  0  0  0  0  0  0
    7.7386    1.5643   -0.0000 C   0  0  0  0  0  0  0  0  0  0  0  0
    5.1314   -2.9390   -0.0000 C   0  0  0  0  0  0  0  0  0  0  0  0
    6.4350   -0.6755   -0.0000 C   0  0  0  0  0  0  0  0  0  0  0  0
    7.7149    0.0711   -0.0000 C   0  0  0  0  0  0  0  0  0  0  0  0
    9.0185    2.3346   -0.0000 C   0  0  0  0  0  0  0  0  0  0  0  0
    6.4232   -2.1806   -0.0000 C   0  0  0  0  0  0  0  0  0  0  0  0
    9.0067   -0.6755   -0.0000 C   0  0  0  0  0  0  0  0  0  0  0  0
   10.3103    1.5999   -0.0000 C   0  0  0  0  0  0  0  0  0  0  0  0
   10.2984    0.0830   -0.0000 C   0  0  0  0  0  0  0  0  0  0  0  0
  1  2  2  0  0  0  0
  2  3  1  0  0  0  0
  4  2  1  1  0  0  0
  5  3  1  1  0  0  0
  4  6  1  0  0  0  0
  4  7  1  0  0  0  0
  5  8  1  0  0  0  0
  5  9  1  0  0  0  0
  7 10  1  1  0  0  0
  8 11  2  0  0  0  0
  8 12  1  0  0  0  0
  9 13  1  0  0  0  0
 12 14  1  0  0  0  0
 13 15  2  0  0  0  0
 13 16  1  0  0  0  0
 14 17  1  0  0  0  0
 15 18  1  0  0  0  0
 16 19  2  0  0  0  0
 17 20  2  0  0  0  0
 17 21  1  0  0  0  0
 18 22  2  0  0  0  0
 20 23  1  0  0  0  0
 21 24  2  0  0  0  0
 23 25  2  0  0  0  0
  6  7  1  0  0  0  0
 19 22  1  0  0  0  0
 24 25  1  0  0  0  0
M  END
>  <MolRegNo>
333653

>  <m>
<

>  <Value>
10

>  <Unit>
%

>  <Type>
Inhibition

>  <Ligand Efficiency>


>  <Binding Efficiency>


>  <Surface Efficiency>


>  <Assay Index>
254534

>  <Assay Category>


>  <Assay Organism>
SARS coronavirus

>  <Target ID>
20012

>  <Target Name>
SARS coronavirus 3C-like proteinase

>  <Target Organism>
SARS coronavirus

>  <Target Description>
Target is a single protein chain

>  <Sequence Accession>
P0C6U8

>  <Reference>
Bioorg. Med. Chem. Lett. 15 (24), 5365-5369 (2005)

>  <Pubmed ID>
16216498

>  <DOI>
10.1016/j.bmcl.2005.09.012

>  <InChI-Key>
XRLMLBLLFRZQEE-BMGDILEWSA-N

>  <Molecular Formula>
C20H21NO4

>  <Monoisotopic Mass>
339.147059

>  <Druglikeness>
4.6243

$$$$
Compound 608
Actelion Java MolfileCreator 1.0

 25 27  0  0  1  0  0  0  0  0999 V2000
    0.0000   -0.0000   -0.0000 O   0  0  0  0  0  0  0  0  0  0  0  0
   -0.0119    1.5169   -0.0000 C   0  0  0  0  0  0  0  0  0  0  0  0
    1.2799    2.2754   -0.0000 N   0  0  0  0  0  0  0  0  0  0  0  0
   -1.3154    2.2754   -0.0000 C   0  0  0  0  0  0  0  0  0  0  0  0
    2.5716    1.5406   -0.0000 C   0  0  0  0  0  0  0  0  0  0  0  0
   -2.0739    3.5908   -0.0000 O   0  0  0  0  0  0  0  0  0  0  0  0
   -2.8324    2.2872   -0.0000 C   0  0  0  0  0  0  0  0  0  0  0  0
    3.8634    2.2991   -0.0000 C   0  0  0  0  0  0  0  0  0  0  0  0
    2.5598    0.0474   -0.0000 C   0  0  0  0  0  0  0  0  0  0  0  0
   -4.1478    1.5406   -0.0000 C   0  0  0  0  0  0  0  0  0  0  0  0
    3.8515    3.8160   -0.0000 O   0  0  0  0  0  0  0  0  0  0  0  0
    5.1551    1.5525   -0.0000 O   0  0  0  0  0  0  0  0  0  0  0  0
    3.8515   -0.6992   -0.0000 C   0  0  0  0  0  0  0  0  0  0  0  0
    6.4469    2.3109   -0.0000 C   0  0  0  0  0  0  0  0  0  0  0  0
    3.8397   -2.1924   -0.0000 C   0  0  0  0  0  0  0  0  0  0  0  0
    5.1433    0.0593   -0.0000 C   0  0  0  0  0  0  0  0  0  0  0  0
    7.7386    1.5643   -0.0000 C   0  0  0  0  0  0  0  0  0  0  0  0
    5.1314   -2.9390   -0.0000 C   0  0  0  0  0  0  0  0  0  0  0  0
    6.4350   -0.6755   -0.0000 C   0  0  0  0  0  0  0  0  0  0  0  0
    7.7149    0.0711   -0.0000 C   0  0  0  0  0  0  0  0  0  0  0  0
    9.0185    2.3346   -0.0000 C   0  0  0  0  0  0  0  0  0  0  0  0
    6.4232   -2.1806   -0.0000 C   0  0  0  0  0  0  0  0  0  0  0  0
    9.0067   -0.6755   -0.0000 C   0  0  0  0  0  0  0  0  0  0  0  0
   10.3103    1.5999   -0.0000 C   0  0  0  0  0  0  0  0  0  0  0  0
   10.2984    0.0830   -0.0000 C   0  0  0  0  0  0  0  0  0  0  0  0
  1  2  2  0  0  0  0
  2  3  1  0  0  0  0
  4  2  1  1  0  0  0
  5  3  1  6  0  0  0
  4  6  1  0  0  0  0
  4  7  1  0  0  0  0
  5  8  1  0  0  0  0
  5  9  1  0  0  0  0
  7 10  1  1  0  0  0
  8 11  2  0  0  0  0
  8 12  1  0  0  0  0
  9 13  1  0  0  0  0
 12 14  1  0  0  0  0
 13 15  2  0  0  0  0
 13 16  1  0  0  0  0
 14 17  1  0  0  0  0
 15 18  1  0  0  0  0
 16 19  2  0  0  0  0
 17 20  2  0  0  0  0
 17 21  1  0  0  0  0
 18 22  2  0  0  0  0
 20 23  1  0  0  0  0
 21 24  2  0  0  0  0
 23 25  2  0  0  0  0
  6  7  1  0  0  0  0
 19 22  1  0  0  0  0
 24 25  1  0  0  0  0
M  END
>  <MolRegNo>
333652

>  <m>
=

>  <Value>
15

>  <Unit>
%

>  <Type>
Inhibition

>  <Ligand Efficiency>


>  <Binding Efficiency>


>  <Surface Efficiency>


>  <Assay Index>
254531

>  <Assay Category>


>  <Assay Organism>
SARS coronavirus

>  <Target ID>
20012

>  <Target Name>
SARS coronavirus 3C-like proteinase

>  <Target Organism>
SARS coronavirus

>  <Target Description>
Target is a single protein chain

>  <Sequence Accession>
P0C6U8

>  <Reference>
Bioorg. Med. Chem. Lett. 15 (24), 5365-5369 (2005)

>  <Pubmed ID>
16216498

>  <DOI>
10.1016/j.bmcl.2005.09.012

>  <InChI-Key>
XRLMLBLLFRZQEE-JCGIZDLHSA-N

>  <Molecular Formula>
C20H21NO4

>  <Monoisotopic Mass>
339.147059

>  <Druglikeness>
4.6243

$$$$
Compound 609
Actelion Java MolfileCreator 1.0

 25 27  0  0  1  0  0  0  0  0999 V2000
    0.0000   -0.0000   -0.0000 O   0  0  0  0  0  0  0  0  0  0  0  0
   -0.0118    1.5167   -0.0000 C   0  0  0  0  0  0  0  0  0  0  0  0
    1.2797    2.2750   -0.0000 N   0  0  0  0  0  0  0  0  0  0  0  0
   -1.3153    2.2750   -0.0000 C   0  0  0  0  0  0  0  0  0  0  0  0
    2.5713    1.5285   -0.0000 C   0  0  0  0  0  0  0  0  0  0  0  0
   -2.0736    3.5903   -0.0000 O   0  0  0  0  0  0  0  0  0  0  0  0
   -2.8319    2.2869   -0.0000 C   0  0  0  0  0  0  0  0  0  0  0  0
    3.8628    2.2869   -0.0000 C   0  0  0  0  0  0  0  0  0  0  0  0
    2.5594    0.0355   -0.0000 C   0  0  0  0  0  0  0  0  0  0  0  0
   -4.1472    1.5404   -0.0000 C   0  0  0  0  0  0  0  0  0  0  0  0
    3.8510    3.8036   -0.0000 O   0  0  0  0  0  0  0  0  0  0  0  0
    5.1544    1.5404   -0.0000 O   0  0  0  0  0  0  0  0  0  0  0  0
    3.8510   -0.7109   -0.0000 C   0  0  0  0  0  0  0  0  0  0  0  0
    6.4459    2.2987   -0.0000 C   0  0  0  0  0  0  0  0  0  0  0  0
    3.8391   -2.2039   -0.0000 C   0  0  0  0  0  0  0  0  0  0  0  0
    5.1425    0.0474   -0.0000 C   0  0  0  0  0  0  0  0  0  0  0  0
    7.7375    1.5522   -0.0000 C   0  0  0  0  0  0  0  0  0  0  0  0
    5.1307   -2.9504   -0.0000 C   0  0  0  0  0  0  0  0  0  0  0  0
    6.4341   -0.6873   -0.0000 C   0  0  0  0  0  0  0  0  0  0  0  0
    7.7138    0.0592   -0.0000 C   0  0  0  0  0  0  0  0  0  0  0  0
    9.0172    2.3224   -0.0000 C   0  0  0  0  0  0  0  0  0  0  0  0
    6.4222   -2.1921   -0.0000 C   0  0  0  0  0  0  0  0  0  0  0  0
    9.0054   -0.6873   -0.0000 C   0  0  0  0  0  0  0  0  0  0  0  0
   10.3088    1.5878   -0.0000 C   0  0  0  0  0  0  0  0  0  0  0  0
   10.2969    0.0711   -0.0000 C   0  0  0  0  0  0  0  0  0  0  0  0
  1  2  2  0  0  0  0
  2  3  1  0  0  0  0
  4  2  1  6  0  0  0
  5  3  1  6  0  0  0
  4  6  1  0  0  0  0
  4  7  1  0  0  0  0
  5  8  1  0  0  0  0
  5  9  1  0  0  0  0
  7 10  1  6  0  0  0
  8 11  2  0  0  0  0
  8 12  1  0  0  0  0
  9 13  1  0  0  0  0
 12 14  1  0  0  0  0
 13 15  2  0  0  0  0
 13 16  1  0  0  0  0
 14 17  1  0  0  0  0
 15 18  1  0  0  0  0
 16 19  2  0  0  0  0
 17 20  2  0  0  0  0
 17 21  1  0  0  0  0
 18 22  2  0  0  0  0
 20 23  1  0  0  0  0
 21 24  2  0  0  0  0
 23 25  2  0  0  0  0
  6  7  1  0  0  0  0
 19 22  1  0  0  0  0
 24 25  1  0  0  0  0
M  END
>  <MolRegNo>
333659

>  <m>
=

>  <Value>
28

>  <Unit>
%

>  <Type>
Inhibition

>  <Ligand Efficiency>


>  <Binding Efficiency>


>  <Surface Efficiency>


>  <Assay Index>
254531

>  <Assay Category>


>  <Assay Organism>
SARS coronavirus

>  <Target ID>
20012

>  <Target Name>
SARS coronavirus 3C-like proteinase

>  <Target Organism>
SARS coronavirus

>  <Target Description>
Target is a single protein chain

>  <Sequence Accession>
P0C6U8

>  <Reference>
Bioorg. Med. Chem. Lett. 15 (24), 5365-5369 (2005)

>  <Pubmed ID>
16216498

>  <DOI>
10.1016/j.bmcl.2005.09.012

>  <InChI-Key>
XRLMLBLLFRZQEE-JLSDUUJJSA-N

>  <Molecular Formula>
C20H21NO4

>  <Monoisotopic Mass>
339.147059

>  <Druglikeness>
4.6243

$$$$
Compound 610
Actelion Java MolfileCreator 1.0

 25 27  0  0  1  0  0  0  0  0999 V2000
    0.0000   -0.0000   -0.0000 O   0  0  0  0  0  0  0  0  0  0  0  0
   -0.0118    1.5167   -0.0000 C   0  0  0  0  0  0  0  0  0  0  0  0
    1.2797    2.2750   -0.0000 N   0  0  0  0  0  0  0  0  0  0  0  0
   -1.3153    2.2750   -0.0000 C   0  0  0  0  0  0  0  0  0  0  0  0
    2.5713    1.5285   -0.0000 C   0  0  0  0  0  0  0  0  0  0  0  0
   -2.0736    3.5903   -0.0000 O   0  0  0  0  0  0  0  0  0  0  0  0
   -2.8319    2.2869   -0.0000 C   0  0  0  0  0  0  0  0  0  0  0  0
    3.8628    2.2869   -0.0000 C   0  0  0  0  0  0  0  0  0  0  0  0
    2.5594    0.0355   -0.0000 C   0  0  0  0  0  0  0  0  0  0  0  0
   -4.1472    1.5404   -0.0000 C   0  0  0  0  0  0  0  0  0  0  0  0
    3.8510    3.8036   -0.0000 O   0  0  0  0  0  0  0  0  0  0  0  0
    5.1544    1.5404   -0.0000 O   0  0  0  0  0  0  0  0  0  0  0  0
    3.8510   -0.7109   -0.0000 C   0  0  0  0  0  0  0  0  0  0  0  0
    6.4459    2.2987   -0.0000 C   0  0  0  0  0  0  0  0  0  0  0  0
    3.8391   -2.2039   -0.0000 C   0  0  0  0  0  0  0  0  0  0  0  0
    5.1425    0.0474   -0.0000 C   0  0  0  0  0  0  0  0  0  0  0  0
    7.7375    1.5522   -0.0000 C   0  0  0  0  0  0  0  0  0  0  0  0
    5.1307   -2.9504   -0.0000 C   0  0  0  0  0  0  0  0  0  0  0  0
    6.4341   -0.6873   -0.0000 C   0  0  0  0  0  0  0  0  0  0  0  0
    7.7138    0.0592   -0.0000 C   0  0  0  0  0  0  0  0  0  0  0  0
    9.0172    2.3224   -0.0000 C   0  0  0  0  0  0  0  0  0  0  0  0
    6.4222   -2.1921   -0.0000 C   0  0  0  0  0  0  0  0  0  0  0  0
    9.0054   -0.6873   -0.0000 C   0  0  0  0  0  0  0  0  0  0  0  0
   10.3088    1.5878   -0.0000 C   0  0  0  0  0  0  0  0  0  0  0  0
   10.2969    0.0711   -0.0000 C   0  0  0  0  0  0  0  0  0  0  0  0
  1  2  2  0  0  0  0
  2  3  1  0  0  0  0
  4  2  1  6  0  0  0
  5  3  1  1  0  0  0
  4  6  1  0  0  0  0
  4  7  1  0  0  0  0
  5  8  1  0  0  0  0
  5  9  1  0  0  0  0
  7 10  1  6  0  0  0
  8 11  2  0  0  0  0
  8 12  1  0  0  0  0
  9 13  1  0  0  0  0
 12 14  1  0  0  0  0
 13 15  2  0  0  0  0
 13 16  1  0  0  0  0
 14 17  1  0  0  0  0
 15 18  1  0  0  0  0
 16 19  2  0  0  0  0
 17 20  2  0  0  0  0
 17 21  1  0  0  0  0
 18 22  2  0  0  0  0
 20 23  1  0  0  0  0
 21 24  2  0  0  0  0
 23 25  2  0  0  0  0
  6  7  1  0  0  0  0
 19 22  1  0  0  0  0
 24 25  1  0  0  0  0
M  END
>  <MolRegNo>
333658

>  <m>
<

>  <Value>
10

>  <Unit>
%

>  <Type>
Inhibition

>  <Ligand Efficiency>


>  <Binding Efficiency>


>  <Surface Efficiency>


>  <Assay Index>
254534

>  <Assay Category>


>  <Assay Organism>
SARS coronavirus

>  <Target ID>
20012

>  <Target Name>
SARS coronavirus 3C-like proteinase

>  <Target Organism>
SARS coronavirus

>  <Target Description>
Target is a single protein chain

>  <Sequence Accession>
P0C6U8

>  <Reference>
Bioorg. Med. Chem. Lett. 15 (24), 5365-5369 (2005)

>  <Pubmed ID>
16216498

>  <DOI>
10.1016/j.bmcl.2005.09.012

>  <InChI-Key>
XRLMLBLLFRZQEE-OLMNPRSZSA-N

>  <Molecular Formula>
C20H21NO4

>  <Monoisotopic Mass>
339.147059

>  <Druglikeness>
4.6243

$$$$
Compound 611
Actelion Java MolfileCreator 1.0

 39 40  0  0  1  0  0  0  0  0999 V2000
    0.0000   -0.0000   -0.0000 O   0  0  0  0  0  0  0  0  0  0  0  0
    1.1081    1.0138   -0.0000 C   0  0  0  0  0  0  0  0  0  0  0  0
    2.5582    0.7073   -0.0000 N   0  0  0  0  0  0  0  0  0  0  0  0
    0.9431    2.5110   -0.0000 C   0  0  0  0  0  0  0  0  0  0  0  0
    3.3009    2.0159   -0.0000 C   0  0  0  0  0  0  0  0  0  0  0  0
    2.2988    3.1358   -0.0000 C   0  0  0  0  0  0  0  0  0  0  0  0
   -0.3655    3.2773   -0.0000 C   0  0  0  0  0  0  0  0  0  0  0  0
   -0.3772    4.7863   -0.0000 C   0  0  0  0  0  0  0  0  0  0  0  0
   -1.6858    5.5525   -0.0000 N   0  0  0  0  0  0  0  0  0  0  0  0
    0.9077    5.5407   -0.0000 C   0  0  0  0  0  0  0  0  0  0  0  0
   -2.9944    4.8216   -0.0000 C   0  0  0  0  0  0  0  0  0  0  0  0
    0.8960    7.0497   -0.0000 C   0  0  0  0  0  0  0  0  0  0  0  0
   -3.0061    3.3362   -0.0000 O   0  0  0  0  0  0  0  0  0  0  0  0
   -4.3029    5.5879   -0.0000 C   0  0  0  0  0  0  0  0  0  0  0  0
    2.1809    7.8042   -0.0000 C   0  0  0  0  0  0  0  0  0  0  0  0
   -5.6115    4.8570   -0.0000 N   0  0  0  0  0  0  0  0  0  0  0  0
   -4.3147    7.0969   -0.0000 C   0  0  0  0  0  0  0  0  0  0  0  0
    2.1691    9.3132   -0.0000 O   0  0  0  0  0  0  0  0  0  0  0  0
    3.4659    7.0615   -0.0000 O   0  0  0  0  0  0  0  0  0  0  0  0
   -6.9200    5.6233   -0.0000 C   0  0  0  0  0  0  0  0  0  0  0  0
   -3.0297    7.8514   -0.0000 C   0  0  0  0  0  0  0  0  0  0  0  0
    4.7509    7.8160   -0.0000 C   0  0  0  0  0  0  0  0  0  0  0  0
   -6.9318    7.1322   -0.0000 O   0  0  0  0  0  0  0  0  0  0  0  0
   -8.2286    4.8924   -0.0000 C   0  0  0  0  0  0  0  0  0  0  0  0
   -1.7565    7.1087   -0.0000 C   0  0  0  0  0  0  0  0  0  0  0  0
   -3.0533    9.3485   -0.0000 C   0  0  0  0  0  0  0  0  0  0  0  0
    6.0359    7.0733   -0.0000 C   0  0  0  0  0  0  0  0  0  0  0  0
   -9.5372    5.6586   -0.0000 N   0  0  0  0  0  0  0  0  0  0  0  0
   -8.2404    3.4070   -0.0000 C   0  0  0  0  0  0  0  0  0  0  0  0
  -10.8457    4.9277   -0.0000 C   0  0  0  0  0  0  0  0  0  0  0  0
   -9.5489    2.6761   -0.0000 C   0  0  0  0  0  0  0  0  0  0  0  0
   -6.9554    2.6643   -0.0000 C   0  0  0  0  0  0  0  0  0  0  0  0
  -10.8575    3.4423   -0.0000 O   0  0  0  0  0  0  0  0  0  0  0  0
  -12.1543    5.6940   -0.0000 C   0  0  0  0  0  0  0  0  0  0  0  0
  -12.3193    7.1912   -0.0000 N   0  0  0  0  0  0  0  0  0  0  0  0
  -13.5336    5.1046   -0.0000 C   0  0  0  0  0  0  0  0  0  0  0  0
  -13.7929    7.5213   -0.0000 O   0  0  0  0  0  0  0  0  0  0  0  0
  -14.5474    6.2245   -0.0000 C   0  0  0  0  0  0  0  0  0  0  0  0
  -16.0446    6.0830   -0.0000 C   0  0  0  0  0  0  0  0  0  0  0  0
  1  2  2  0  0  0  0
  2  3  1  0  0  0  0
  2  4  1  0  0  0  0
  3  5  1  0  0  0  0
  4  6  1  0  0  0  0
  4  7  1  6  0  0  0
  7  8  1  0  0  0  0
  8  9  1  6  0  0  0
  8 10  1  0  0  0  0
  9 11  1  0  0  0  0
 10 12  2  0  0  0  0
 11 13  2  0  0  0  0
 11 14  1  0  0  0  0
 12 15  1  0  0  0  0
 14 16  1  1  0  0  0
 14 17  1  0  0  0  0
 15 18  2  0  0  0  0
 15 19  1  0  0  0  0
 16 20  1  0  0  0  0
 17 21  1  0  0  0  0
 19 22  1  0  0  0  0
 20 23  2  0  0  0  0
 20 24  1  0  0  0  0
 21 25  1  0  0  0  0
 21 26  1  0  0  0  0
 22 27  1  0  0  0  0
 24 28  1  6  0  0  0
 24 29  1  0  0  0  0
 28 30  1  0  0  0  0
 29 31  1  0  0  0  0
 29 32  1  0  0  0  0
 30 33  2  0  0  0  0
 30 34  1  0  0  0  0
 34 35  2  0  0  0  0
 34 36  1  0  0  0  0
 35 37  1  0  0  0  0
 36 38  2  0  0  0  0
 38 39  1  0  0  0  0
  5  6  1  0  0  0  0
 37 38  1  0  0  0  0
M  END
>  <MolRegNo>
399196

>  <m>


>  <Value>
0

>  <Unit>


>  <Type>
IC50

>  <Ligand Efficiency>


>  <Binding Efficiency>


>  <Surface Efficiency>


>  <Assay Index>
298649

>  <Assay Category>


>  <Assay Organism>
SARS coronavirus

>  <Target ID>
100499

>  <Target Name>
SARS coronavirus

>  <Target Organism>
SARS coronavirus

>  <Target Description>
Target is a complete organism

>  <Sequence Accession>


>  <Reference>
Bioorg. Med. Chem. Lett. 17 (21), 5876-5880 (2007)

>  <Pubmed ID>
17855091

>  <DOI>
10.1016/j.bmcl.2007.08.031

>  <InChI-Key>
XRQABLDUWKEZML-SRYPRDQNSA-N

>  <Molecular Formula>
C27H41N5O7

>  <Monoisotopic Mass>
547.300600

>  <Druglikeness>
-2.2895

$$$$
Compound 612
Actelion Java MolfileCreator 1.0

 21 23  0  0  0  0  0  0  0  0999 V2000
    0.0000   -0.0000   -0.0000 Cl  0  0  0  0  0  0  0  0  0  0  0  0
    1.2812   -0.7355   -0.0000 C   0  0  0  0  0  0  0  0  0  0  0  0
    2.5624    0.0237   -0.0000 C   0  0  0  0  0  0  0  0  0  0  0  0
    1.2693   -2.2184   -0.0000 C   0  0  0  0  0  0  0  0  0  0  0  0
    3.8436   -0.7118   -0.0000 C   0  0  0  0  0  0  0  0  0  0  0  0
    2.5505    1.5303   -0.0000 C   0  0  0  0  0  0  0  0  0  0  0  0
    2.5505   -2.9539   -0.0000 C   0  0  0  0  0  0  0  0  0  0  0  0
    5.1248    0.0475   -0.0000 Cl  0  0  0  0  0  0  0  0  0  0  0  0
    3.8317   -2.2065   -0.0000 C   0  0  0  0  0  0  0  0  0  0  0  0
    3.7368    2.4200   -0.0000 S   0  0  0  0  0  0  0  0  0  0  0  0
    1.3168    2.4082   -0.0000 N   0  0  0  0  0  0  0  0  0  0  0  0
    3.2623    3.8555   -0.0000 C   0  0  0  0  0  0  0  0  0  0  0  0
   -0.2017    2.4200   -0.0000 C   0  0  0  0  0  0  0  0  0  0  0  0
    1.7676    3.8436   -0.0000 C   0  0  0  0  0  0  0  0  0  0  0  0
    4.1283    5.0773   -0.0000 C   0  0  0  0  0  0  0  0  0  0  0  0
   -0.9609    3.7368   -0.0000 N   0  0  0  0  0  0  0  0  0  0  0  0
   -0.9609    1.1270   -0.0000 C   0  0  0  0  0  0  0  0  0  0  0  0
    0.8779    5.0655   -0.0000 O   0  0  0  0  0  0  0  0  0  0  0  0
   -2.4794    3.7487   -0.0000 C   0  0  0  0  0  0  0  0  0  0  0  0
   -2.4794    1.1270   -0.0000 C   0  0  0  0  0  0  0  0  0  0  0  0
   -3.2386    2.4556   -0.0000 C   0  0  0  0  0  0  0  0  0  0  0  0
  1  2  1  0  0  0  0
  2  3  2  0  0  0  0
  2  4  1  0  0  0  0
  3  5  1  0  0  0  0
  3  6  1  0  0  0  0
  4  7  2  0  0  0  0
  5  8  1  0  0  0  0
  5  9  2  0  0  0  0
  6 10  1  0  0  0  0
  6 11  1  0  0  0  0
 10 12  1  0  0  0  0
 11 13  1  0  0  0  0
 11 14  1  0  0  0  0
 12 15  1  0  0  0  0
 13 16  2  0  0  0  0
 13 17  1  0  0  0  0
 14 18  2  0  0  0  0
 16 19  1  0  0  0  0
 17 20  2  0  0  0  0
 19 21  2  0  0  0  0
  7  9  1  0  0  0  0
 12 14  1  0  0  0  0
 20 21  1  0  0  0  0
M  END
>  <MolRegNo>
453067

>  <m>
<=

>  <Value>
50

>  <Unit>
%

>  <Type>
Inhibition

>  <Ligand Efficiency>


>  <Binding Efficiency>


>  <Surface Efficiency>


>  <Assay Index>
406904

>  <Assay Category>


>  <Assay Organism>
SARS coronavirus

>  <Target ID>
101075

>  <Target Name>
Replicase polyprotein 1ab

>  <Target Organism>
SARS coronavirus

>  <Target Description>
Target is a single protein chain

>  <Sequence Accession>
P0C6X7

>  <Reference>
Bioorg. Med. Chem. Lett. 18 (23), 6110-6114 (2008)

>  <Pubmed ID>
18947995

>  <DOI>
10.1016/j.bmcl.2008.10.023

>  <InChI-Key>
XTAVLRWOPAIEDI-UHFFFAOYSA-N

>  <Molecular Formula>
C15H12N2OCl2S

>  <Monoisotopic Mass>
338.004737

>  <Druglikeness>
3.8253

$$$$
Compound 613
Actelion Java MolfileCreator 1.0

 42 45  0  0  0  0  0  0  0  0999 V2000
    0.0000   -0.0000   -0.0000 S   0  0  0  0  0  0  0  0  0  0  0  0
    0.1423    1.5060   -0.0000 C   0  0  0  0  0  0  0  0  0  0  0  0
   -1.4704   -0.3083   -0.0000 C   0  0  0  0  0  0  0  0  0  0  0  0
    1.4230    2.2650   -0.0000 C   0  0  0  0  0  0  0  0  0  0  0  0
   -1.2451    2.1227   -0.0000 C   0  0  0  0  0  0  0  0  0  0  0  0
   -2.2412    0.9961   -0.0000 C   0  0  0  0  0  0  0  0  0  0  0  0
    2.7156    1.5297   -0.0000 N   0  0  0  0  0  0  0  0  0  0  0  0
    1.4112    3.7710   -0.0000 C   0  0  0  0  0  0  0  0  0  0  0  0
    3.9963    2.3005   -0.0000 C   0  0  0  0  0  0  0  0  0  0  0  0
    2.6563    0.0474   -0.0000 C   0  0  0  0  0  0  0  0  0  0  0  0
    2.6919    4.5299   -0.0000 C   0  0  0  0  0  0  0  0  0  0  0  0
    5.2889    1.5653   -0.0000 O   0  0  0  0  0  0  0  0  0  0  0  0
    3.9726    3.8066   -0.0000 C   0  0  0  0  0  0  0  0  0  0  0  0
    1.3281   -0.6522   -0.0000 O   0  0  0  0  0  0  0  0  0  0  0  0
    3.9251   -0.7352   -0.0000 C   0  0  0  0  0  0  0  0  0  0  0  0
    2.6800    6.0359   -0.0000 C   0  0  0  0  0  0  0  0  0  0  0  0
    5.2533    4.5774   -0.0000 C   0  0  0  0  0  0  0  0  0  0  0  0
    1.2689   -2.1345   -0.0000 C   0  0  0  0  0  0  0  0  0  0  0  0
    5.2414   -0.0119   -0.0000 O   0  0  0  0  0  0  0  0  0  0  0  0
    3.8658   -2.2294   -0.0000 C   0  0  0  0  0  0  0  0  0  0  0  0
    1.4586    6.9253   -0.0000 S   0  0  0  0  0  0  0  0  0  0  0  0
    3.8777    6.9372   -0.0000 C   0  0  0  0  0  0  0  0  0  0  0  0
    6.5340    5.3482   -0.0000 N   0  0  0  0  0  0  0  0  0  0  0  0
    2.5258   -2.9172   -0.0000 C   0  0  0  0  0  0  0  0  0  0  0  0
   -0.0712   -2.8342   -0.0000 C   0  0  0  0  0  0  0  0  0  0  0  0
    6.5103   -0.7945   -0.0000 C   0  0  0  0  0  0  0  0  0  0  0  0
    5.1347   -3.0120   -0.0000 O   0  0  0  0  0  0  0  0  0  0  0  0
    1.8973    8.3602   -0.0000 C   0  0  0  0  0  0  0  0  0  0  0  0
    3.4034    8.3721   -0.0000 C   0  0  0  0  0  0  0  0  0  0  0  0
    2.4666   -4.4113   -0.0000 O   0  0  0  0  0  0  0  0  0  0  0  0
   -1.3637   -2.0396   -0.0000 O   0  0  0  0  0  0  0  0  0  0  0  0
    6.4510   -2.2887   -0.0000 O   0  0  0  0  0  0  0  0  0  0  0  0
    7.8266   -0.0712   -0.0000 C   0  0  0  0  0  0  0  0  0  0  0  0
    5.0754   -4.5062   -0.0000 C   0  0  0  0  0  0  0  0  0  0  0  0
    1.1266   -5.1110   -0.0000 C   0  0  0  0  0  0  0  0  0  0  0  0
   -2.7037   -2.7393   -0.0000 C   0  0  0  0  0  0  0  0  0  0  0  0
    3.7354   -5.2059   -0.0000 O   0  0  0  0  0  0  0  0  0  0  0  0
    6.3443   -5.2889   -0.0000 C   0  0  0  0  0  0  0  0  0  0  0  0
   -0.1542   -4.3046   -0.0000 O   0  0  0  0  0  0  0  0  0  0  0  0
    1.0673   -6.6051   -0.0000 C   0  0  0  0  0  0  0  0  0  0  0  0
   -2.7630   -4.2335   -0.0000 O   0  0  0  0  0  0  0  0  0  0  0  0
   -3.9963   -1.9329   -0.0000 C   0  0  0  0  0  0  0  0  0  0  0  0
  1  2  1  0  0  0  0
  1  3  1  0  0  0  0
  2  4  1  0  0  0  0
  2  5  2  0  0  0  0
  3  6  2  0  0  0  0
  4  7  1  0  0  0  0
  4  8  2  0  0  0  0
  7  9  1  0  0  0  0
 10  7  1  6  0  0  0
  8 11  1  0  0  0  0
  9 12  2  0  0  0  0
  9 13  1  0  0  0  0
 10 14  1  0  0  0  0
 10 15  1  0  0  0  0
 11 16  1  0  0  0  0
 13 17  1  0  0  0  0
 14 18  1  0  0  0  0
 15 19  1  1  0  0  0
 15 20  1  0  0  0  0
 16 21  1  0  0  0  0
 16 22  2  0  0  0  0
 17 23  3  0  0  0  0
 18 24  1  0  0  0  0
 18 25  1  6  0  0  0
 19 26  1  0  0  0  0
 20 27  1  6  0  0  0
 21 28  1  0  0  0  0
 22 29  1  0  0  0  0
 24 30  1  6  0  0  0
 25 31  1  0  0  0  0
 26 32  2  0  0  0  0
 26 33  1  0  0  0  0
 27 34  1  0  0  0  0
 30 35  1  0  0  0  0
 31 36  1  0  0  0  0
 34 37  2  0  0  0  0
 34 38  1  0  0  0  0
 35 39  2  0  0  0  0
 35 40  1  0  0  0  0
 36 41  2  0  0  0  0
 36 42  1  0  0  0  0
  5  6  1  0  0  0  0
 11 13  2  0  0  0  0
 20 24  1  0  0  0  0
 28 29  2  0  0  0  0
M  END
>  <MolRegNo>
1619990

>  <m>
=

>  <Value>
10000

>  <Unit>
nM

>  <Type>
EC50

>  <Ligand Efficiency>


>  <Binding Efficiency>


>  <Surface Efficiency>


>  <Assay Index>
825873

>  <Assay Category>


>  <Assay Organism>
SARS coronavirus

>  <Target ID>
100499

>  <Target Name>
SARS coronavirus

>  <Target Organism>
SARS coronavirus

>  <Target Description>
Target is a complete organism

>  <Sequence Accession>


>  <Reference>


>  <Pubmed ID>
24486419

>  <DOI>
10.1016/j.ejmech.2013.12.055

>  <InChI-Key>
XTJZCZAFVQWPFH-PKQHSRECSA-N

>  <Molecular Formula>
C28H26N2O10S2

>  <Monoisotopic Mass>
614.102888

>  <Druglikeness>
0.99484

$$$$
Compound 614
Actelion Java MolfileCreator 1.0

 42 45  0  0  0  0  0  0  0  0999 V2000
    0.0000   -0.0000   -0.0000 S   0  0  0  0  0  0  0  0  0  0  0  0
    0.1894    1.5037   -0.0000 C   0  0  0  0  0  0  0  0  0  0  0  0
   -1.4918   -0.2486   -0.0000 C   0  0  0  0  0  0  0  0  0  0  0  0
    1.5037    2.2259   -0.0000 C   0  0  0  0  0  0  0  0  0  0  0  0
   -1.1721    2.1785   -0.0000 C   0  0  0  0  0  0  0  0  0  0  0  0
   -2.2140    1.0893   -0.0000 C   0  0  0  0  0  0  0  0  0  0  0  0
    2.7587    1.4445   -0.0000 N   0  0  0  0  0  0  0  0  0  0  0  0
    1.5392    3.7414   -0.0000 C   0  0  0  0  0  0  0  0  0  0  0  0
    4.0729    2.1667   -0.0000 C   0  0  0  0  0  0  0  0  0  0  0  0
    2.6995   -0.0355   -0.0000 C   0  0  0  0  0  0  0  0  0  0  0  0
    2.8534    4.4636   -0.0000 C   0  0  0  0  0  0  0  0  0  0  0  0
    5.3398    1.3853   -0.0000 O   0  0  0  0  0  0  0  0  0  0  0  0
    4.1084    3.6822   -0.0000 C   0  0  0  0  0  0  0  0  0  0  0  0
    1.3616   -0.7341   -0.0000 O   0  0  0  0  0  0  0  0  0  0  0  0
    3.9663   -0.8169   -0.0000 C   0  0  0  0  0  0  0  0  0  0  0  0
    2.8889    5.9673   -0.0000 C   0  0  0  0  0  0  0  0  0  0  0  0
    5.4226    4.4044   -0.0000 C   0  0  0  0  0  0  0  0  0  0  0  0
    1.2905   -2.2259   -0.0000 C   0  0  0  0  0  0  0  0  0  0  0  0
    5.2806   -0.1066   -0.0000 O   0  0  0  0  0  0  0  0  0  0  0  0
    3.8953   -2.3088   -0.0000 C   0  0  0  0  0  0  0  0  0  0  0  0
    1.6931    6.9026   -0.0000 S   0  0  0  0  0  0  0  0  0  0  0  0
    4.1203    6.8197   -0.0000 C   0  0  0  0  0  0  0  0  0  0  0  0
    6.7368    5.1266   -0.0000 N   0  0  0  0  0  0  0  0  0  0  0  0
    2.5574   -3.0073   -0.0000 C   0  0  0  0  0  0  0  0  0  0  0  0
   -0.0474   -2.9244   -0.0000 C   0  0  0  0  0  0  0  0  0  0  0  0
    6.3225    0.9827   -0.0000 C   0  0  0  0  0  0  0  0  0  0  0  0
    5.1503   -3.0902   -0.0000 O   0  0  0  0  0  0  0  0  0  0  0  0
    2.1904    8.3234   -0.0000 C   0  0  0  0  0  0  0  0  0  0  0  0
    3.6822    8.2760   -0.0000 C   0  0  0  0  0  0  0  0  0  0  0  0
    2.4864   -4.4991   -0.0000 O   0  0  0  0  0  0  0  0  0  0  0  0
   -0.1066   -4.4044   -0.0000 O   0  0  0  0  0  0  0  0  0  0  0  0
    6.2988    2.4982   -0.0000 O   0  0  0  0  0  0  0  0  0  0  0  0
    7.7669    0.6157   -0.0000 C   0  0  0  0  0  0  0  0  0  0  0  0
    6.4645   -2.3798   -0.0000 C   0  0  0  0  0  0  0  0  0  0  0  0
    3.7414   -5.2806   -0.0000 C   0  0  0  0  0  0  0  0  0  0  0  0
   -1.4445   -5.1030   -0.0000 C   0  0  0  0  0  0  0  0  0  0  0  0
    7.7196   -3.1612   -0.0000 O   0  0  0  0  0  0  0  0  0  0  0  0
    6.5119   -0.8643   -0.0000 C   0  0  0  0  0  0  0  0  0  0  0  0
    3.6703   -6.7724   -0.0000 O   0  0  0  0  0  0  0  0  0  0  0  0
    5.0556   -4.5702   -0.0000 C   0  0  0  0  0  0  0  0  0  0  0  0
   -1.5037   -6.5948   -0.0000 O   0  0  0  0  0  0  0  0  0  0  0  0
   -2.7350   -4.2978   -0.0000 C   0  0  0  0  0  0  0  0  0  0  0  0
  1  2  1  0  0  0  0
  1  3  1  0  0  0  0
  2  4  1  0  0  0  0
  2  5  2  0  0  0  0
  3  6  2  0  0  0  0
  4  7  1  0  0  0  0
  4  8  2  0  0  0  0
  7  9  1  0  0  0  0
 10  7  1  6  0  0  0
  8 11  1  0  0  0  0
  9 12  2  0  0  0  0
  9 13  1  0  0  0  0
 10 14  1  0  0  0  0
 10 15  1  0  0  0  0
 11 16  1  0  0  0  0
 13 17  1  0  0  0  0
 14 18  1  0  0  0  0
 15 19  1  1  0  0  0
 15 20  1  0  0  0  0
 16 21  1  0  0  0  0
 16 22  2  0  0  0  0
 17 23  3  0  0  0  0
 18 24  1  0  0  0  0
 18 25  1  6  0  0  0
 19 26  1  0  0  0  0
 20 27  1  6  0  0  0
 21 28  1  0  0  0  0
 22 29  1  0  0  0  0
 24 30  1  1  0  0  0
 25 31  1  0  0  0  0
 26 32  2  0  0  0  0
 26 33  1  0  0  0  0
 27 34  1  0  0  0  0
 30 35  1  0  0  0  0
 31 36  1  0  0  0  0
 34 37  2  0  0  0  0
 34 38  1  0  0  0  0
 35 39  2  0  0  0  0
 35 40  1  0  0  0  0
 36 41  2  0  0  0  0
 36 42  1  0  0  0  0
  5  6  1  0  0  0  0
 11 13  2  0  0  0  0
 20 24  1  0  0  0  0
 28 29  2  0  0  0  0
M  END
>  <MolRegNo>
1619902

>  <m>
>

>  <Value>
32000

>  <Unit>
nM

>  <Type>
EC50

>  <Ligand Efficiency>


>  <Binding Efficiency>


>  <Surface Efficiency>


>  <Assay Index>
825873

>  <Assay Category>


>  <Assay Organism>
SARS coronavirus

>  <Target ID>
100499

>  <Target Name>
SARS coronavirus

>  <Target Organism>
SARS coronavirus

>  <Target Description>
Target is a complete organism

>  <Sequence Accession>


>  <Reference>


>  <Pubmed ID>
24486419

>  <DOI>
10.1016/j.ejmech.2013.12.055

>  <InChI-Key>
XTJZCZAFVQWPFH-QVSKFDSWSA-N

>  <Molecular Formula>
C28H26N2O10S2

>  <Monoisotopic Mass>
614.102888

>  <Druglikeness>
0.99484

$$$$
Compound 615
Actelion Java MolfileCreator 1.0

 19 21  0  0  0  0  0  0  0  0999 V2000
    0.0000   -0.0000   -0.0000 O   0  0  0  0  0  0  0  0  0  0  0  0
    0.8876    1.2071   -0.0000 C   0  0  0  0  0  0  0  0  0  0  0  0
    0.4379    2.6510   -0.0000 C   0  0  0  0  0  0  0  0  0  0  0  0
    2.3669    1.1835   -0.0000 C   0  0  0  0  0  0  0  0  0  0  0  0
    1.6569    3.5267   -0.0000 C   0  0  0  0  0  0  0  0  0  0  0  0
   -0.9941    3.1480   -0.0000 C   0  0  0  0  0  0  0  0  0  0  0  0
    3.2190   -0.0355   -0.0000 O   0  0  0  0  0  0  0  0  0  0  0  0
    2.8403    2.6155   -0.0000 C   0  0  0  0  0  0  0  0  0  0  0  0
   -2.0829    2.1184   -0.0000 O   0  0  0  0  0  0  0  0  0  0  0  0
    4.2723    3.0652   -0.0000 N   0  0  0  0  0  0  0  0  0  0  0  0
    4.7457    4.4972   -0.0000 C   0  0  0  0  0  0  0  0  0  0  0  0
    5.4558    2.1658   -0.0000 C   0  0  0  0  0  0  0  0  0  0  0  0
    4.0120    5.8227   -0.0000 N   0  0  0  0  0  0  0  0  0  0  0  0
    6.2369    4.4854   -0.0000 C   0  0  0  0  0  0  0  0  0  0  0  0
    6.6748    3.0415   -0.0000 N   0  0  0  0  0  0  0  0  0  0  0  0
    4.7812    7.1245   -0.0000 C   0  0  0  0  0  0  0  0  0  0  0  0
    6.9943    5.7753   -0.0000 C   0  0  0  0  0  0  0  0  0  0  0  0
    6.2606    7.1008   -0.0000 N   0  0  0  0  0  0  0  0  0  0  0  0
    8.4855    5.7635   -0.0000 N   0  0  0  0  0  0  0  0  0  0  0  0
  2  1  1  6  0  0  0
  2  3  1  0  0  0  0
  2  4  1  0  0  0  0
  3  5  2  0  0  0  0
  3  6  1  0  0  0  0
  4  7  1  6  0  0  0
  4  8  1  0  0  0  0
  6  9  1  0  0  0  0
  8 10  1  1  0  0  0
 10 11  1  0  0  0  0
 10 12  1  0  0  0  0
 11 13  2  0  0  0  0
 11 14  1  0  0  0  0
 12 15  2  0  0  0  0
 13 16  1  0  0  0  0
 14 17  2  0  0  0  0
 16 18  2  0  0  0  0
 17 19  1  0  0  0  0
  5  8  1  0  0  0  0
 14 15  1  0  0  0  0
 17 18  1  0  0  0  0
M  END
>  <MolRegNo>
3998

>  <m>


>  <Value>
0

>  <Unit>


>  <Type>
EC50

>  <Ligand Efficiency>


>  <Binding Efficiency>


>  <Surface Efficiency>


>  <Assay Index>
281342

>  <Assay Category>


>  <Assay Organism>
SARS coronavirus

>  <Target ID>
100499

>  <Target Name>
SARS coronavirus

>  <Target Organism>
SARS coronavirus

>  <Target Description>
Target is a complete organism

>  <Sequence Accession>


>  <Reference>
Bioorg. Med. Chem. 15 (2), 839-846 (2007)

>  <Pubmed ID>
17085053

>  <DOI>
10.1016/j.bmc.2006.10.043

>  <InChI-Key>
XUGWUUDOWNZAGW-ZQARSLAVSA-N

>  <Molecular Formula>
C11H13N5O3

>  <Monoisotopic Mass>
263.101840

>  <Druglikeness>
1.7618

$$$$
Compound 616
Actelion Java MolfileCreator 1.0

 19 21  0  0  0  0  0  0  0  0999 V2000
    0.0000   -0.0000   -0.0000 O   0  0  0  0  0  0  0  0  0  0  0  0
    0.8876    1.2071   -0.0000 C   0  0  0  0  0  0  0  0  0  0  0  0
    0.4379    2.6510   -0.0000 C   0  0  0  0  0  0  0  0  0  0  0  0
    2.3669    1.1835   -0.0000 C   0  0  0  0  0  0  0  0  0  0  0  0
    1.6569    3.5267   -0.0000 C   0  0  0  0  0  0  0  0  0  0  0  0
   -0.9941    3.1480   -0.0000 C   0  0  0  0  0  0  0  0  0  0  0  0
    3.2190   -0.0355   -0.0000 O   0  0  0  0  0  0  0  0  0  0  0  0
    2.8403    2.6155   -0.0000 C   0  0  0  0  0  0  0  0  0  0  0  0
   -2.0829    2.1184   -0.0000 O   0  0  0  0  0  0  0  0  0  0  0  0
    4.2723    3.0652   -0.0000 N   0  0  0  0  0  0  0  0  0  0  0  0
    4.7457    4.4972   -0.0000 C   0  0  0  0  0  0  0  0  0  0  0  0
    5.4558    2.1658   -0.0000 C   0  0  0  0  0  0  0  0  0  0  0  0
    4.0120    5.8227   -0.0000 N   0  0  0  0  0  0  0  0  0  0  0  0
    6.2369    4.4854   -0.0000 C   0  0  0  0  0  0  0  0  0  0  0  0
    6.6748    3.0415   -0.0000 N   0  0  0  0  0  0  0  0  0  0  0  0
    4.7812    7.1245   -0.0000 C   0  0  0  0  0  0  0  0  0  0  0  0
    6.9943    5.7753   -0.0000 C   0  0  0  0  0  0  0  0  0  0  0  0
    6.2606    7.1008   -0.0000 N   0  0  0  0  0  0  0  0  0  0  0  0
    8.4855    5.7635   -0.0000 N   0  0  0  0  0  0  0  0  0  0  0  0
  2  1  1  6  0  0  0
  2  3  1  0  0  0  0
  2  4  1  0  0  0  0
  3  5  2  0  0  0  0
  3  6  1  0  0  0  0
  4  7  1  6  0  0  0
  4  8  1  0  0  0  0
  6  9  1  0  0  0  0
  8 10  1  1  0  0  0
 10 11  1  0  0  0  0
 10 12  1  0  0  0  0
 11 13  2  0  0  0  0
 11 14  1  0  0  0  0
 12 15  2  0  0  0  0
 13 16  1  0  0  0  0
 14 17  2  0  0  0  0
 16 18  2  0  0  0  0
 17 19  1  0  0  0  0
  5  8  1  0  0  0  0
 14 15  1  0  0  0  0
 17 18  1  0  0  0  0
M  END
>  <MolRegNo>
3998

>  <m>


>  <Value>
0

>  <Unit>


>  <Type>
IC50

>  <Ligand Efficiency>


>  <Binding Efficiency>


>  <Surface Efficiency>


>  <Assay Index>
281342

>  <Assay Category>


>  <Assay Organism>
SARS coronavirus

>  <Target ID>
100499

>  <Target Name>
SARS coronavirus

>  <Target Organism>
SARS coronavirus

>  <Target Description>
Target is a complete organism

>  <Sequence Accession>


>  <Reference>
Bioorg. Med. Chem. 15 (2), 839-846 (2007)

>  <Pubmed ID>
17085053

>  <DOI>
10.1016/j.bmc.2006.10.043

>  <InChI-Key>
XUGWUUDOWNZAGW-ZQARSLAVSA-N

>  <Molecular Formula>
C11H13N5O3

>  <Monoisotopic Mass>
263.101840

>  <Druglikeness>
1.7618

$$$$
Compound 617
Actelion Java MolfileCreator 1.0

 37 41  0  0  0  0  0  0  0  0999 V2000
    0.0000   -0.0000   -0.0000 O   0  0  0  0  0  0  0  0  0  0  0  0
   -1.1948    0.3901   -0.0000 C   0  0  0  0  0  0  0  0  0  0  0  0
   -2.4628   -0.5121   -0.0000 N   0  0  0  0  0  0  0  0  0  0  0  0
   -1.6947    1.8532   -0.0000 C   0  0  0  0  0  0  0  0  0  0  0  0
   -3.7308    0.4145   -0.0000 N   0  0  0  0  0  0  0  0  0  0  0  0
   -2.4750   -2.0483   -0.0000 C   0  0  0  0  0  0  0  0  0  0  0  0
   -3.2431    1.8776   -0.0000 C   0  0  0  0  0  0  0  0  0  0  0  0
   -0.8047    3.1212   -0.0000 C   0  0  0  0  0  0  0  0  0  0  0  0
   -1.2070   -2.9017   -0.0000 C   0  0  0  0  0  0  0  0  0  0  0  0
   -3.8893   -2.7067   -0.0000 C   0  0  0  0  0  0  0  0  0  0  0  0
   -4.1575    3.1456   -0.0000 C   0  0  0  0  0  0  0  0  0  0  0  0
    0.7193    2.9749   -0.0000 C   0  0  0  0  0  0  0  0  0  0  0  0
   -1.3289   -4.4379   -0.0000 C   0  0  0  0  0  0  0  0  0  0  0  0
   -4.0112   -4.2429   -0.0000 C   0  0  0  0  0  0  0  0  0  0  0  0
   -3.6454    4.6086   -0.0000 C   0  0  0  0  0  0  0  0  0  0  0  0
   -5.6937    2.8773   -0.0000 C   0  0  0  0  0  0  0  0  0  0  0  0
    1.7435    4.1331   -0.0000 O   0  0  0  0  0  0  0  0  0  0  0  0
    1.4874    1.6459   -0.0000 C   0  0  0  0  0  0  0  0  0  0  0  0
   -2.7310   -5.0963   -0.0000 C   0  0  0  0  0  0  0  0  0  0  0  0
   -4.6574    5.8034   -0.0000 C   0  0  0  0  0  0  0  0  0  0  0  0
   -6.7057    4.0722   -0.0000 C   0  0  0  0  0  0  0  0  0  0  0  0
    3.1212    3.5113   -0.0000 C   0  0  0  0  0  0  0  0  0  0  0  0
    2.9871    1.9873   -0.0000 C   0  0  0  0  0  0  0  0  0  0  0  0
   -2.8530   -6.6325   -0.0000 C   0  0  0  0  0  0  0  0  0  0  0  0
   -6.1936    5.5352   -0.0000 C   0  0  0  0  0  0  0  0  0  0  0  0
    4.4501    4.2916   -0.0000 C   0  0  0  0  0  0  0  0  0  0  0  0
   -1.8410   -7.3153   -0.0000 C   0  0  0  0  0  0  0  0  0  0  0  0
   -3.9746   -7.1568   -0.0000 C   0  0  0  0  0  0  0  0  0  0  0  0
   -2.9627   -7.8517   -0.0000 C   0  0  0  0  0  0  0  0  0  0  0  0
    5.7791    3.5357   -0.0000 C   0  0  0  0  0  0  0  0  0  0  0  0
    4.4379    5.8522   -0.0000 C   0  0  0  0  0  0  0  0  0  0  0  0
    5.7669    1.9995   -0.0000 C   0  0  0  0  0  0  0  0  0  0  0  0
    7.1080    4.3160   -0.0000 C   0  0  0  0  0  0  0  0  0  0  0  0
    5.7669    6.6325   -0.0000 C   0  0  0  0  0  0  0  0  0  0  0  0
    6.8276    1.3899   -0.0000 O   0  0  0  0  0  0  0  0  0  0  0  0
    4.6818    1.3899   -0.0000 O   0  0  0  0  0  0  0  0  0  0  0  0
    7.0958    5.8766   -0.0000 C   0  0  0  0  0  0  0  0  0  0  0  0
  1  2  2  0  0  0  0
  2  3  1  0  0  0  0
  2  4  1  0  0  0  0
  3  5  1  0  0  0  0
  3  6  1  0  0  0  0
  4  7  1  0  0  0  0
  4  8  2  0  0  0  0
  6  9  2  0  0  0  0
  6 10  1  0  0  0  0
  7 11  1  0  0  0  0
  8 12  1  0  0  0  0
  9 13  1  0  0  0  0
 10 14  2  0  0  0  0
 11 15  2  0  0  0  0
 11 16  1  0  0  0  0
 12 17  1  0  0  0  0
 12 18  2  0  0  0  0
 13 19  2  0  0  0  0
 15 20  1  0  0  0  0
 16 21  2  0  0  0  0
 17 22  1  0  0  0  0
 18 23  1  0  0  0  0
 19 24  1  0  0  0  0
 20 25  2  0  0  0  0
 22 26  1  0  0  0  0
 24 27  1  0  0  0  0
 24 28  1  0  0  0  0
 24 29  1  0  0  0  0
 26 30  2  0  0  0  0
 26 31  1  0  0  0  0
 30 32  1  0  0  0  0
 30 33  1  0  0  0  0
 31 34  2  0  0  0  0
 32 35  2  0  0  0  0
 32 36  1  0  0  0  0
 33 37  2  0  0  0  0
  5  7  2  0  0  0  0
 14 19  1  0  0  0  0
 21 25  1  0  0  0  0
 22 23  2  0  0  0  0
 34 37  1  0  0  0  0
M  END
>  <MolRegNo>
2087679

>  <m>
=

>  <Value>
8600

>  <Unit>
nM

>  <Type>
IC50

>  <Ligand Efficiency>
0.19

>  <Binding Efficiency>
10.33

>  <Surface Efficiency>
6.09

>  <Assay Index>
1017144

>  <Assay Category>


>  <Assay Organism>
SARS coronavirus

>  <Target ID>
101075

>  <Target Name>
Replicase polyprotein 1ab

>  <Target Organism>
SARS coronavirus

>  <Target Description>
Target is a single protein chain

>  <Sequence Accession>
P0C6X7

>  <Reference>
Bioorg. Med. Chem. 24 (13), 3035-3042 (2016)

>  <Pubmed ID>
27240464

>  <DOI>
10.1016/j.bmc.2016.05.013

>  <InChI-Key>
XWFZHLYIOFAQRH-UHFFFAOYSA-N

>  <Molecular Formula>
C31H26N2O4

>  <Monoisotopic Mass>
490.189258

>  <Druglikeness>
1.8901

$$$$
Compound 618
Actelion Java MolfileCreator 1.0

 22 23  0  0  0  0  0  0  0  0999 V2000
    0.0000   -0.0000   -0.0000 Cl  0  0  0  0  0  0  0  0  0  0  0  0
    1.2919   -0.7417   -0.0000 C   0  0  0  0  0  0  0  0  0  0  0  0
    1.2799   -2.2489   -0.0000 C   0  0  0  0  0  0  0  0  0  0  0  0
    2.5838    0.0239   -0.0000 C   0  0  0  0  0  0  0  0  0  0  0  0
    2.5719   -2.9905   -0.0000 C   0  0  0  0  0  0  0  0  0  0  0  0
    3.8877   -0.7177   -0.0000 C   0  0  0  0  0  0  0  0  0  0  0  0
    3.8757   -2.2250   -0.0000 C   0  0  0  0  0  0  0  0  0  0  0  0
    5.1676   -2.9666   -0.0000 N   0  0  0  0  0  0  0  0  0  0  0  0
    6.4596   -2.2010   -0.0000 C   0  0  0  0  0  0  0  0  0  0  0  0
    6.4476   -0.6818   -0.0000 O   0  0  0  0  0  0  0  0  0  0  0  0
    7.7515   -2.9427   -0.0000 C   0  0  0  0  0  0  0  0  0  0  0  0
    9.0434   -2.1771   -0.0000 S   0  0  0  0  0  0  0  0  0  0  0  0
   10.3353   -2.9188   -0.0000 C   0  0  0  0  0  0  0  0  0  0  0  0
   11.6152   -2.1412   -0.0000 N   0  0  0  0  0  0  0  0  0  0  0  0
   10.3114   -4.4140   -0.0000 N   0  0  0  0  0  0  0  0  0  0  0  0
   12.9071   -2.8709   -0.0000 C   0  0  0  0  0  0  0  0  0  0  0  0
   11.6033   -5.1557   -0.0000 C   0  0  0  0  0  0  0  0  0  0  0  0
   14.1991   -2.0934   -0.0000 O   0  0  0  0  0  0  0  0  0  0  0  0
   12.9071   -4.3781   -0.0000 C   0  0  0  0  0  0  0  0  0  0  0  0
   11.5913   -6.6509   -0.0000 C   0  0  0  0  0  0  0  0  0  0  0  0
   10.2755   -7.3926   -0.0000 C   0  0  0  0  0  0  0  0  0  0  0  0
   10.2635   -8.8879   -0.0000 C   0  0  0  0  0  0  0  0  0  0  0  0
  1  2  1  0  0  0  0
  2  3  2  0  0  0  0
  2  4  1  0  0  0  0
  3  5  1  0  0  0  0
  4  6  2  0  0  0  0
  5  7  2  0  0  0  0
  7  8  1  0  0  0  0
  8  9  1  0  0  0  0
  9 10  2  0  0  0  0
  9 11  1  0  0  0  0
 11 12  1  0  0  0  0
 12 13  1  0  0  0  0
 13 14  2  0  0  0  0
 13 15  1  0  0  0  0
 14 16  1  0  0  0  0
 15 17  2  0  0  0  0
 16 18  1  0  0  0  0
 16 19  2  0  0  0  0
 17 20  1  0  0  0  0
 20 21  1  0  0  0  0
 21 22  1  0  0  0  0
  6  7  1  0  0  0  0
 17 19  1  0  0  0  0
M  END
>  <MolRegNo>
348926

>  <m>
=

>  <Value>
3.3113e13

>  <Unit>
nM

>  <Type>
IC50

>  <Ligand Efficiency>


>  <Binding Efficiency>


>  <Surface Efficiency>


>  <Assay Index>
262926

>  <Assay Category>


>  <Assay Organism>
SARS coronavirus

>  <Target ID>
20012

>  <Target Name>
SARS coronavirus 3C-like proteinase

>  <Target Organism>
SARS coronavirus

>  <Target Description>
Target is a single protein chain

>  <Sequence Accession>
P0C6U8

>  <Reference>
J. Med. Chem. 49 (12), 3485-3495 (2006)

>  <Pubmed ID>
16759091

>  <DOI>
10.1021/jm050852f

>  <InChI-Key>
YBWHJLWKGZIQNQ-UHFFFAOYSA-N

>  <Molecular Formula>
C15H16N3O2ClS

>  <Monoisotopic Mass>
337.065174

>  <Druglikeness>
-0.79557

$$$$
Compound 619
Actelion Java MolfileCreator 1.0

 22 23  0  0  0  0  0  0  0  0999 V2000
    0.0000   -0.0000   -0.0000 Cl  0  0  0  0  0  0  0  0  0  0  0  0
    1.2919   -0.7417   -0.0000 C   0  0  0  0  0  0  0  0  0  0  0  0
    1.2799   -2.2489   -0.0000 C   0  0  0  0  0  0  0  0  0  0  0  0
    2.5838    0.0239   -0.0000 C   0  0  0  0  0  0  0  0  0  0  0  0
    2.5719   -2.9905   -0.0000 C   0  0  0  0  0  0  0  0  0  0  0  0
    3.8877   -0.7177   -0.0000 C   0  0  0  0  0  0  0  0  0  0  0  0
    3.8757   -2.2250   -0.0000 C   0  0  0  0  0  0  0  0  0  0  0  0
    5.1676   -2.9666   -0.0000 N   0  0  0  0  0  0  0  0  0  0  0  0
    6.4596   -2.2010   -0.0000 C   0  0  0  0  0  0  0  0  0  0  0  0
    6.4476   -0.6818   -0.0000 O   0  0  0  0  0  0  0  0  0  0  0  0
    7.7515   -2.9427   -0.0000 C   0  0  0  0  0  0  0  0  0  0  0  0
    9.0434   -2.1771   -0.0000 S   0  0  0  0  0  0  0  0  0  0  0  0
   10.3353   -2.9188   -0.0000 C   0  0  0  0  0  0  0  0  0  0  0  0
   11.6152   -2.1412   -0.0000 N   0  0  0  0  0  0  0  0  0  0  0  0
   10.3114   -4.4140   -0.0000 N   0  0  0  0  0  0  0  0  0  0  0  0
   12.9071   -2.8709   -0.0000 C   0  0  0  0  0  0  0  0  0  0  0  0
   11.6033   -5.1557   -0.0000 C   0  0  0  0  0  0  0  0  0  0  0  0
   14.1991   -2.0934   -0.0000 O   0  0  0  0  0  0  0  0  0  0  0  0
   12.9071   -4.3781   -0.0000 C   0  0  0  0  0  0  0  0  0  0  0  0
   11.5913   -6.6509   -0.0000 C   0  0  0  0  0  0  0  0  0  0  0  0
   10.2755   -7.3926   -0.0000 C   0  0  0  0  0  0  0  0  0  0  0  0
   10.2635   -8.8879   -0.0000 C   0  0  0  0  0  0  0  0  0  0  0  0
  1  2  1  0  0  0  0
  2  3  2  0  0  0  0
  2  4  1  0  0  0  0
  3  5  1  0  0  0  0
  4  6  2  0  0  0  0
  5  7  2  0  0  0  0
  7  8  1  0  0  0  0
  8  9  1  0  0  0  0
  9 10  2  0  0  0  0
  9 11  1  0  0  0  0
 11 12  1  0  0  0  0
 12 13  1  0  0  0  0
 13 14  2  0  0  0  0
 13 15  1  0  0  0  0
 14 16  1  0  0  0  0
 15 17  2  0  0  0  0
 16 18  1  0  0  0  0
 16 19  2  0  0  0  0
 17 20  1  0  0  0  0
 20 21  1  0  0  0  0
 21 22  1  0  0  0  0
  6  7  1  0  0  0  0
 17 19  1  0  0  0  0
M  END
>  <MolRegNo>
348926

>  <m>
=

>  <Value>
30000

>  <Unit>
nM

>  <Type>
IC50

>  <Ligand Efficiency>
0.28

>  <Binding Efficiency>
13.39

>  <Surface Efficiency>
6.02

>  <Assay Index>
262926

>  <Assay Category>


>  <Assay Organism>
SARS coronavirus

>  <Target ID>
20012

>  <Target Name>
SARS coronavirus 3C-like proteinase

>  <Target Organism>
SARS coronavirus

>  <Target Description>
Target is a single protein chain

>  <Sequence Accession>
P0C6U8

>  <Reference>
J. Med. Chem. 49 (12), 3485-3495 (2006)

>  <Pubmed ID>
16759091

>  <DOI>
10.1021/jm050852f

>  <InChI-Key>
YBWHJLWKGZIQNQ-UHFFFAOYSA-N

>  <Molecular Formula>
C15H16N3O2ClS

>  <Monoisotopic Mass>
337.065174

>  <Druglikeness>
-0.79557

$$$$
Compound 620
Actelion Java MolfileCreator 1.0

 24 27  0  0  0  0  0  0  0  0999 V2000
    0.0000   -0.0000   -0.0000 Cl  0  0  0  0  0  0  0  0  0  0  0  0
   -1.3025   -0.7341   -0.0000 C   0  0  0  0  0  0  0  0  0  0  0  0
   -2.6050    0.0237   -0.0000 C   0  0  0  0  0  0  0  0  0  0  0  0
   -1.3143   -2.2261   -0.0000 C   0  0  0  0  0  0  0  0  0  0  0  0
   -3.9075   -0.7105   -0.0000 C   0  0  0  0  0  0  0  0  0  0  0  0
   -2.6168    1.5275   -0.0000 C   0  0  0  0  0  0  0  0  0  0  0  0
   -2.6287   -2.9602   -0.0000 C   0  0  0  0  0  0  0  0  0  0  0  0
   -5.2100    0.0474   -0.0000 F   0  0  0  0  0  0  0  0  0  0  0  0
   -3.9193   -2.1906   -0.0000 C   0  0  0  0  0  0  0  0  0  0  0  0
   -1.4327    2.4155   -0.0000 S   0  0  0  0  0  0  0  0  0  0  0  0
   -3.8483    2.4037   -0.0000 N   0  0  0  0  0  0  0  0  0  0  0  0
   -1.9064    3.8483   -0.0000 C   0  0  0  0  0  0  0  0  0  0  0  0
   -5.3521    2.4037   -0.0000 C   0  0  0  0  0  0  0  0  0  0  0  0
   -3.3983    3.8364   -0.0000 C   0  0  0  0  0  0  0  0  0  0  0  0
   -6.1099    3.7062   -0.0000 N   0  0  0  0  0  0  0  0  0  0  0  0
   -6.0981    1.1130   -0.0000 C   0  0  0  0  0  0  0  0  0  0  0  0
   -4.2864    5.0561   -0.0000 O   0  0  0  0  0  0  0  0  0  0  0  0
   -7.6137    3.7062   -0.0000 C   0  0  0  0  0  0  0  0  0  0  0  0
   -7.6019    1.1130   -0.0000 C   0  0  0  0  0  0  0  0  0  0  0  0
   -8.3715    2.4274   -0.0000 C   0  0  0  0  0  0  0  0  0  0  0  0
   -8.3715    5.0087   -0.0000 C   0  0  0  0  0  0  0  0  0  0  0  0
   -9.8635    2.4392   -0.0000 C   0  0  0  0  0  0  0  0  0  0  0  0
   -9.8753    5.0205   -0.0000 C   0  0  0  0  0  0  0  0  0  0  0  0
  -10.6213    3.7299   -0.0000 C   0  0  0  0  0  0  0  0  0  0  0  0
  1  2  1  0  0  0  0
  2  3  2  0  0  0  0
  2  4  1  0  0  0  0
  3  5  1  0  0  0  0
  3  6  1  0  0  0  0
  4  7  2  0  0  0  0
  5  8  1  0  0  0  0
  5  9  2  0  0  0  0
  6 10  1  0  0  0  0
  6 11  1  0  0  0  0
 10 12  1  0  0  0  0
 11 13  1  0  0  0  0
 11 14  1  0  0  0  0
 13 15  2  0  0  0  0
 13 16  1  0  0  0  0
 14 17  2  0  0  0  0
 15 18  1  0  0  0  0
 16 19  2  0  0  0  0
 18 20  1  0  0  0  0
 18 21  2  0  0  0  0
 20 22  2  0  0  0  0
 21 23  1  0  0  0  0
 22 24  1  0  0  0  0
  7  9  1  0  0  0  0
 12 14  1  0  0  0  0
 19 20  1  0  0  0  0
 23 24  2  0  0  0  0
M  END
>  <MolRegNo>
452993

>  <m>
<=

>  <Value>
50

>  <Unit>
%

>  <Type>
Inhibition

>  <Ligand Efficiency>


>  <Binding Efficiency>


>  <Surface Efficiency>


>  <Assay Index>
406904

>  <Assay Category>


>  <Assay Organism>
SARS coronavirus

>  <Target ID>
101075

>  <Target Name>
Replicase polyprotein 1ab

>  <Target Organism>
SARS coronavirus

>  <Target Description>
Target is a single protein chain

>  <Sequence Accession>
P0C6X7

>  <Reference>
Bioorg. Med. Chem. Lett. 18 (23), 6110-6114 (2008)

>  <Pubmed ID>
18947995

>  <DOI>
10.1016/j.bmcl.2008.10.023

>  <InChI-Key>
YCCHQUOMZVHIOW-UHFFFAOYSA-N

>  <Molecular Formula>
C18H12N2OClFS

>  <Monoisotopic Mass>
358.034288

>  <Druglikeness>
1.5133

$$$$
Compound 621
Actelion Java MolfileCreator 1.0

 25 28  0  0  0  0  0  0  0  0999 V2000
    0.0000   -0.0000   -0.0000 O   0  0  0  0  0  0  0  0  0  0  0  0
    1.2941   -0.7361   -0.0000 C   0  0  0  0  0  0  0  0  0  0  0  0
    1.2941   -2.2202   -0.0000 C   0  0  0  0  0  0  0  0  0  0  0  0
    2.5882    0.0237   -0.0000 C   0  0  0  0  0  0  0  0  0  0  0  0
    2.5882   -2.9563   -0.0000 C   0  0  0  0  0  0  0  0  0  0  0  0
   -0.0119   -2.9563   -0.0000 C   0  0  0  0  0  0  0  0  0  0  0  0
    2.5763    1.5434   -0.0000 O   0  0  0  0  0  0  0  0  0  0  0  0
    3.8823   -0.7124   -0.0000 C   0  0  0  0  0  0  0  0  0  0  0  0
    3.8704   -2.1964   -0.0000 C   0  0  0  0  0  0  0  0  0  0  0  0
    2.5763   -4.4522   -0.0000 C   0  0  0  0  0  0  0  0  0  0  0  0
   -0.0237   -4.4522   -0.0000 C   0  0  0  0  0  0  0  0  0  0  0  0
   -1.3297   -2.1845   -0.0000 C   0  0  0  0  0  0  0  0  0  0  0  0
    5.3070   -0.2375   -0.0000 C   0  0  0  0  0  0  0  0  0  0  0  0
    5.2833   -2.6594   -0.0000 O   0  0  0  0  0  0  0  0  0  0  0  0
    1.2585   -5.1883   -0.0000 C   0  0  0  0  0  0  0  0  0  0  0  0
   -1.3416   -5.1883   -0.0000 C   0  0  0  0  0  0  0  0  0  0  0  0
   -2.6476   -2.9325   -0.0000 C   0  0  0  0  0  0  0  0  0  0  0  0
    6.1737   -1.4484   -0.0000 C   0  0  0  0  0  0  0  0  0  0  0  0
    5.7700    1.2110   -0.0000 C   0  0  0  0  0  0  0  0  0  0  0  0
   -2.1133   -6.4705   -0.0000 C   0  0  0  0  0  0  0  0  0  0  0  0
   -2.6476   -4.4284   -0.0000 C   0  0  0  0  0  0  0  0  0  0  0  0
   -0.6055   -6.4824   -0.0000 C   0  0  0  0  0  0  0  0  0  0  0  0
   -1.3772   -7.7646   -0.0000 O   0  0  0  0  0  0  0  0  0  0  0  0
   -3.6330   -6.4586   -0.0000 O   0  0  0  0  0  0  0  0  0  0  0  0
   -4.3928   -5.1408   -0.0000 C   0  0  0  0  0  0  0  0  0  0  0  0
  1  2  2  0  0  0  0
  2  3  1  0  0  0  0
  2  4  1  0  0  0  0
  3  5  2  0  0  0  0
  3  6  1  0  0  0  0
  4  7  2  0  0  0  0
  4  8  1  0  0  0  0
  5  9  1  0  0  0  0
  5 10  1  0  0  0  0
  6 11  2  0  0  0  0
  6 12  1  0  0  0  0
  8 13  1  0  0  0  0
  9 14  1  0  0  0  0
 10 15  2  0  0  0  0
 11 16  1  0  0  0  0
 12 17  1  0  0  0  0
 13 18  2  0  0  0  0
 13 19  1  0  0  0  0
 16 20  1  0  0  0  0
 16 21  1  0  0  0  0
 16 22  1  1  0  0  0
 20 23  2  0  0  0  0
 20 24  1  0  0  0  0
 24 25  1  0  0  0  0
  8  9  2  0  0  0  0
 11 15  1  0  0  0  0
 14 18  1  0  0  0  0
 17 21  1  0  0  0  0
M  END
>  <MolRegNo>
1420008

>  <m>
=

>  <Value>
21100

>  <Unit>
nM

>  <Type>
IC50

>  <Ligand Efficiency>
0.26

>  <Binding Efficiency>
13.82

>  <Surface Efficiency>
6.35

>  <Assay Index>
678191

>  <Assay Category>


>  <Assay Organism>
SARS coronavirus

>  <Target ID>
20012

>  <Target Name>
SARS coronavirus 3C-like proteinase

>  <Target Organism>
SARS coronavirus

>  <Target Description>
Target is a single protein chain

>  <Sequence Accession>
P0C6U8

>  <Reference>
Bioorg. Med. Chem. 20 (19), 5928-5935 (2012)

>  <Pubmed ID>
22884354

>  <DOI>
10.1016/j.bmc.2012.07.038

>  <InChI-Key>
YFDKIHAZVQFLRC-HXUWFJFHSA-N

>  <Molecular Formula>
C20H18O5

>  <Monoisotopic Mass>
338.115425

>  <Druglikeness>
-9.937

$$$$
Compound 622
Actelion Java MolfileCreator 1.0

 25 28  0  0  0  0  0  0  0  0999 V2000
    0.0000   -0.0000   -0.0000 O   0  0  0  0  0  0  0  0  0  0  0  0
    1.2941   -0.7361   -0.0000 C   0  0  0  0  0  0  0  0  0  0  0  0
    1.2941   -2.2202   -0.0000 C   0  0  0  0  0  0  0  0  0  0  0  0
    2.5882    0.0237   -0.0000 C   0  0  0  0  0  0  0  0  0  0  0  0
    2.5882   -2.9563   -0.0000 C   0  0  0  0  0  0  0  0  0  0  0  0
   -0.0119   -2.9563   -0.0000 C   0  0  0  0  0  0  0  0  0  0  0  0
    2.5763    1.5434   -0.0000 O   0  0  0  0  0  0  0  0  0  0  0  0
    3.8823   -0.7124   -0.0000 C   0  0  0  0  0  0  0  0  0  0  0  0
    3.8704   -2.1964   -0.0000 C   0  0  0  0  0  0  0  0  0  0  0  0
    2.5763   -4.4522   -0.0000 C   0  0  0  0  0  0  0  0  0  0  0  0
   -0.0237   -4.4522   -0.0000 C   0  0  0  0  0  0  0  0  0  0  0  0
   -1.3297   -2.1845   -0.0000 C   0  0  0  0  0  0  0  0  0  0  0  0
    5.3070   -0.2375   -0.0000 C   0  0  0  0  0  0  0  0  0  0  0  0
    5.2833   -2.6594   -0.0000 O   0  0  0  0  0  0  0  0  0  0  0  0
    1.2585   -5.1883   -0.0000 C   0  0  0  0  0  0  0  0  0  0  0  0
   -1.3416   -5.1883   -0.0000 C   0  0  0  0  0  0  0  0  0  0  0  0
   -2.6476   -2.9325   -0.0000 C   0  0  0  0  0  0  0  0  0  0  0  0
    6.1737   -1.4484   -0.0000 C   0  0  0  0  0  0  0  0  0  0  0  0
    5.7700    1.2110   -0.0000 C   0  0  0  0  0  0  0  0  0  0  0  0
   -2.1133   -6.4705   -0.0000 C   0  0  0  0  0  0  0  0  0  0  0  0
   -2.6476   -4.4284   -0.0000 C   0  0  0  0  0  0  0  0  0  0  0  0
   -0.6055   -6.4824   -0.0000 C   0  0  0  0  0  0  0  0  0  0  0  0
   -1.3772   -7.7646   -0.0000 O   0  0  0  0  0  0  0  0  0  0  0  0
   -3.6330   -6.4586   -0.0000 O   0  0  0  0  0  0  0  0  0  0  0  0
   -4.3928   -5.1408   -0.0000 C   0  0  0  0  0  0  0  0  0  0  0  0
  1  2  2  0  0  0  0
  2  3  1  0  0  0  0
  2  4  1  0  0  0  0
  3  5  2  0  0  0  0
  3  6  1  0  0  0  0
  4  7  2  0  0  0  0
  4  8  1  0  0  0  0
  5  9  1  0  0  0  0
  5 10  1  0  0  0  0
  6 11  2  0  0  0  0
  6 12  1  0  0  0  0
  8 13  1  0  0  0  0
  9 14  1  0  0  0  0
 10 15  2  0  0  0  0
 11 16  1  0  0  0  0
 12 17  1  0  0  0  0
 13 18  2  0  0  0  0
 13 19  1  0  0  0  0
 16 20  1  0  0  0  0
 16 21  1  0  0  0  0
 16 22  1  1  0  0  0
 20 23  2  0  0  0  0
 20 24  1  0  0  0  0
 24 25  1  0  0  0  0
  8  9  2  0  0  0  0
 11 15  1  0  0  0  0
 14 18  1  0  0  0  0
 17 21  1  0  0  0  0
M  END
>  <MolRegNo>
1420008

>  <m>
=

>  <Value>
10600

>  <Unit>
nM

>  <Type>
IC50

>  <Ligand Efficiency>
0.27

>  <Binding Efficiency>
14.70

>  <Surface Efficiency>
6.76

>  <Assay Index>
678310

>  <Assay Category>


>  <Assay Organism>
SARS coronavirus

>  <Target ID>
20012

>  <Target Name>
SARS coronavirus 3C-like proteinase

>  <Target Organism>
SARS coronavirus

>  <Target Description>
Target is a single protein chain

>  <Sequence Accession>
P0C6U8

>  <Reference>
Bioorg. Med. Chem. 20 (19), 5928-5935 (2012)

>  <Pubmed ID>
22884354

>  <DOI>
10.1016/j.bmc.2012.07.038

>  <InChI-Key>
YFDKIHAZVQFLRC-HXUWFJFHSA-N

>  <Molecular Formula>
C20H18O5

>  <Monoisotopic Mass>
338.115425

>  <Druglikeness>
-9.937

$$$$
Compound 623
Actelion Java MolfileCreator 1.0

 25 28  0  0  0  0  0  0  0  0999 V2000
    0.0000   -0.0000   -0.0000 O   0  0  0  0  0  0  0  0  0  0  0  0
    1.2941   -0.7361   -0.0000 C   0  0  0  0  0  0  0  0  0  0  0  0
    1.2941   -2.2202   -0.0000 C   0  0  0  0  0  0  0  0  0  0  0  0
    2.5882    0.0237   -0.0000 C   0  0  0  0  0  0  0  0  0  0  0  0
    2.5882   -2.9563   -0.0000 C   0  0  0  0  0  0  0  0  0  0  0  0
   -0.0119   -2.9563   -0.0000 C   0  0  0  0  0  0  0  0  0  0  0  0
    2.5763    1.5434   -0.0000 O   0  0  0  0  0  0  0  0  0  0  0  0
    3.8823   -0.7124   -0.0000 C   0  0  0  0  0  0  0  0  0  0  0  0
    3.8704   -2.1964   -0.0000 C   0  0  0  0  0  0  0  0  0  0  0  0
    2.5763   -4.4522   -0.0000 C   0  0  0  0  0  0  0  0  0  0  0  0
   -0.0237   -4.4522   -0.0000 C   0  0  0  0  0  0  0  0  0  0  0  0
   -1.3297   -2.1845   -0.0000 C   0  0  0  0  0  0  0  0  0  0  0  0
    5.3070   -0.2375   -0.0000 C   0  0  0  0  0  0  0  0  0  0  0  0
    5.2833   -2.6594   -0.0000 O   0  0  0  0  0  0  0  0  0  0  0  0
    1.2585   -5.1883   -0.0000 C   0  0  0  0  0  0  0  0  0  0  0  0
   -1.3416   -5.1883   -0.0000 C   0  0  0  0  0  0  0  0  0  0  0  0
   -2.6476   -2.9325   -0.0000 C   0  0  0  0  0  0  0  0  0  0  0  0
    6.1737   -1.4484   -0.0000 C   0  0  0  0  0  0  0  0  0  0  0  0
    5.7700    1.2110   -0.0000 C   0  0  0  0  0  0  0  0  0  0  0  0
   -2.1133   -6.4705   -0.0000 C   0  0  0  0  0  0  0  0  0  0  0  0
   -2.6476   -4.4284   -0.0000 C   0  0  0  0  0  0  0  0  0  0  0  0
   -0.6055   -6.4824   -0.0000 C   0  0  0  0  0  0  0  0  0  0  0  0
   -1.3772   -7.7646   -0.0000 O   0  0  0  0  0  0  0  0  0  0  0  0
   -3.6330   -6.4586   -0.0000 O   0  0  0  0  0  0  0  0  0  0  0  0
   -4.3928   -5.1408   -0.0000 C   0  0  0  0  0  0  0  0  0  0  0  0
  1  2  2  0  0  0  0
  2  3  1  0  0  0  0
  2  4  1  0  0  0  0
  3  5  2  0  0  0  0
  3  6  1  0  0  0  0
  4  7  2  0  0  0  0
  4  8  1  0  0  0  0
  5  9  1  0  0  0  0
  5 10  1  0  0  0  0
  6 11  2  0  0  0  0
  6 12  1  0  0  0  0
  8 13  1  0  0  0  0
  9 14  1  0  0  0  0
 10 15  2  0  0  0  0
 11 16  1  0  0  0  0
 12 17  1  0  0  0  0
 13 18  2  0  0  0  0
 13 19  1  0  0  0  0
 16 20  1  0  0  0  0
 16 21  1  0  0  0  0
 16 22  1  1  0  0  0
 20 23  2  0  0  0  0
 20 24  1  0  0  0  0
 24 25  1  0  0  0  0
  8  9  2  0  0  0  0
 11 15  1  0  0  0  0
 14 18  1  0  0  0  0
 17 21  1  0  0  0  0
M  END
>  <MolRegNo>
1420008

>  <m>
=

>  <Value>
9200

>  <Unit>
nM

>  <Type>
IC50

>  <Ligand Efficiency>
0.28

>  <Binding Efficiency>
14.88

>  <Surface Efficiency>
6.84

>  <Assay Index>
678190

>  <Assay Category>


>  <Assay Organism>
SARS coronavirus

>  <Target ID>
20012

>  <Target Name>
SARS coronavirus 3C-like proteinase

>  <Target Organism>
SARS coronavirus

>  <Target Description>
Target is a single protein chain

>  <Sequence Accession>
P0C6U8

>  <Reference>
Bioorg. Med. Chem. 20 (19), 5928-5935 (2012)

>  <Pubmed ID>
22884354

>  <DOI>
10.1016/j.bmc.2012.07.038

>  <InChI-Key>
YFDKIHAZVQFLRC-HXUWFJFHSA-N

>  <Molecular Formula>
C20H18O5

>  <Monoisotopic Mass>
338.115425

>  <Druglikeness>
-9.937

$$$$
Compound 624
Actelion Java MolfileCreator 1.0

 25 28  0  0  0  0  0  0  0  0999 V2000
    0.0000   -0.0000   -0.0000 O   0  0  0  0  0  0  0  0  0  0  0  0
    1.2941   -0.7361   -0.0000 C   0  0  0  0  0  0  0  0  0  0  0  0
    1.2941   -2.2202   -0.0000 C   0  0  0  0  0  0  0  0  0  0  0  0
    2.5882    0.0237   -0.0000 C   0  0  0  0  0  0  0  0  0  0  0  0
    2.5882   -2.9563   -0.0000 C   0  0  0  0  0  0  0  0  0  0  0  0
   -0.0119   -2.9563   -0.0000 C   0  0  0  0  0  0  0  0  0  0  0  0
    2.5763    1.5434   -0.0000 O   0  0  0  0  0  0  0  0  0  0  0  0
    3.8823   -0.7124   -0.0000 C   0  0  0  0  0  0  0  0  0  0  0  0
    3.8704   -2.1964   -0.0000 C   0  0  0  0  0  0  0  0  0  0  0  0
    2.5763   -4.4522   -0.0000 C   0  0  0  0  0  0  0  0  0  0  0  0
   -0.0237   -4.4522   -0.0000 C   0  0  0  0  0  0  0  0  0  0  0  0
   -1.3297   -2.1845   -0.0000 C   0  0  0  0  0  0  0  0  0  0  0  0
    5.3070   -0.2375   -0.0000 C   0  0  0  0  0  0  0  0  0  0  0  0
    5.2833   -2.6594   -0.0000 O   0  0  0  0  0  0  0  0  0  0  0  0
    1.2585   -5.1883   -0.0000 C   0  0  0  0  0  0  0  0  0  0  0  0
   -1.3416   -5.1883   -0.0000 C   0  0  0  0  0  0  0  0  0  0  0  0
   -2.6476   -2.9325   -0.0000 C   0  0  0  0  0  0  0  0  0  0  0  0
    6.1737   -1.4484   -0.0000 C   0  0  0  0  0  0  0  0  0  0  0  0
    5.7700    1.2110   -0.0000 C   0  0  0  0  0  0  0  0  0  0  0  0
   -2.1133   -6.4705   -0.0000 C   0  0  0  0  0  0  0  0  0  0  0  0
   -2.6476   -4.4284   -0.0000 C   0  0  0  0  0  0  0  0  0  0  0  0
   -0.6055   -6.4824   -0.0000 C   0  0  0  0  0  0  0  0  0  0  0  0
   -1.3772   -7.7646   -0.0000 O   0  0  0  0  0  0  0  0  0  0  0  0
   -3.6330   -6.4586   -0.0000 O   0  0  0  0  0  0  0  0  0  0  0  0
   -4.3928   -5.1408   -0.0000 C   0  0  0  0  0  0  0  0  0  0  0  0
  1  2  2  0  0  0  0
  2  3  1  0  0  0  0
  2  4  1  0  0  0  0
  3  5  2  0  0  0  0
  3  6  1  0  0  0  0
  4  7  2  0  0  0  0
  4  8  1  0  0  0  0
  5  9  1  0  0  0  0
  5 10  1  0  0  0  0
  6 11  2  0  0  0  0
  6 12  1  0  0  0  0
  8 13  1  0  0  0  0
  9 14  1  0  0  0  0
 10 15  2  0  0  0  0
 11 16  1  0  0  0  0
 12 17  1  0  0  0  0
 13 18  2  0  0  0  0
 13 19  1  0  0  0  0
 16 20  1  0  0  0  0
 16 21  1  0  0  0  0
 16 22  1  1  0  0  0
 20 23  2  0  0  0  0
 20 24  1  0  0  0  0
 24 25  1  0  0  0  0
  8  9  2  0  0  0  0
 11 15  1  0  0  0  0
 14 18  1  0  0  0  0
 17 21  1  0  0  0  0
M  END
>  <MolRegNo>
1420008

>  <m>


>  <Value>
0

>  <Unit>


>  <Type>
Inhibition

>  <Ligand Efficiency>


>  <Binding Efficiency>


>  <Surface Efficiency>


>  <Assay Index>
678194

>  <Assay Category>


>  <Assay Organism>
SARS coronavirus

>  <Target ID>
20012

>  <Target Name>
SARS coronavirus 3C-like proteinase

>  <Target Organism>
SARS coronavirus

>  <Target Description>
Target is a single protein chain

>  <Sequence Accession>
P0C6U8

>  <Reference>
Bioorg. Med. Chem. 20 (19), 5928-5935 (2012)

>  <Pubmed ID>
22884354

>  <DOI>
10.1016/j.bmc.2012.07.038

>  <InChI-Key>
YFDKIHAZVQFLRC-HXUWFJFHSA-N

>  <Molecular Formula>
C20H18O5

>  <Monoisotopic Mass>
338.115425

>  <Druglikeness>
-9.937

$$$$
Compound 625
Actelion Java MolfileCreator 1.0

 25 28  0  0  0  0  0  0  0  0999 V2000
    0.0000   -0.0000   -0.0000 O   0  0  0  0  0  0  0  0  0  0  0  0
    1.2941   -0.7361   -0.0000 C   0  0  0  0  0  0  0  0  0  0  0  0
    1.2941   -2.2202   -0.0000 C   0  0  0  0  0  0  0  0  0  0  0  0
    2.5882    0.0237   -0.0000 C   0  0  0  0  0  0  0  0  0  0  0  0
    2.5882   -2.9563   -0.0000 C   0  0  0  0  0  0  0  0  0  0  0  0
   -0.0119   -2.9563   -0.0000 C   0  0  0  0  0  0  0  0  0  0  0  0
    2.5763    1.5434   -0.0000 O   0  0  0  0  0  0  0  0  0  0  0  0
    3.8823   -0.7124   -0.0000 C   0  0  0  0  0  0  0  0  0  0  0  0
    3.8704   -2.1964   -0.0000 C   0  0  0  0  0  0  0  0  0  0  0  0
    2.5763   -4.4522   -0.0000 C   0  0  0  0  0  0  0  0  0  0  0  0
   -0.0237   -4.4522   -0.0000 C   0  0  0  0  0  0  0  0  0  0  0  0
   -1.3297   -2.1845   -0.0000 C   0  0  0  0  0  0  0  0  0  0  0  0
    5.3070   -0.2375   -0.0000 C   0  0  0  0  0  0  0  0  0  0  0  0
    5.2833   -2.6594   -0.0000 O   0  0  0  0  0  0  0  0  0  0  0  0
    1.2585   -5.1883   -0.0000 C   0  0  0  0  0  0  0  0  0  0  0  0
   -1.3416   -5.1883   -0.0000 C   0  0  0  0  0  0  0  0  0  0  0  0
   -2.6476   -2.9325   -0.0000 C   0  0  0  0  0  0  0  0  0  0  0  0
    6.1737   -1.4484   -0.0000 C   0  0  0  0  0  0  0  0  0  0  0  0
    5.7700    1.2110   -0.0000 C   0  0  0  0  0  0  0  0  0  0  0  0
   -2.1133   -6.4705   -0.0000 C   0  0  0  0  0  0  0  0  0  0  0  0
   -2.6476   -4.4284   -0.0000 C   0  0  0  0  0  0  0  0  0  0  0  0
   -0.6055   -6.4824   -0.0000 C   0  0  0  0  0  0  0  0  0  0  0  0
   -1.3772   -7.7646   -0.0000 O   0  0  0  0  0  0  0  0  0  0  0  0
   -3.6330   -6.4586   -0.0000 O   0  0  0  0  0  0  0  0  0  0  0  0
   -4.3928   -5.1408   -0.0000 C   0  0  0  0  0  0  0  0  0  0  0  0
  1  2  2  0  0  0  0
  2  3  1  0  0  0  0
  2  4  1  0  0  0  0
  3  5  2  0  0  0  0
  3  6  1  0  0  0  0
  4  7  2  0  0  0  0
  4  8  1  0  0  0  0
  5  9  1  0  0  0  0
  5 10  1  0  0  0  0
  6 11  2  0  0  0  0
  6 12  1  0  0  0  0
  8 13  1  0  0  0  0
  9 14  1  0  0  0  0
 10 15  2  0  0  0  0
 11 16  1  0  0  0  0
 12 17  1  0  0  0  0
 13 18  2  0  0  0  0
 13 19  1  0  0  0  0
 16 20  1  0  0  0  0
 16 21  1  0  0  0  0
 16 22  1  1  0  0  0
 20 23  2  0  0  0  0
 20 24  1  0  0  0  0
 24 25  1  0  0  0  0
  8  9  2  0  0  0  0
 11 15  1  0  0  0  0
 14 18  1  0  0  0  0
 17 21  1  0  0  0  0
M  END
>  <MolRegNo>
1420008

>  <m>


>  <Value>
0

>  <Unit>


>  <Type>
Inhibition

>  <Ligand Efficiency>


>  <Binding Efficiency>


>  <Surface Efficiency>


>  <Assay Index>
678307

>  <Assay Category>


>  <Assay Organism>
SARS coronavirus

>  <Target ID>
20012

>  <Target Name>
SARS coronavirus 3C-like proteinase

>  <Target Organism>
SARS coronavirus

>  <Target Description>
Target is a single protein chain

>  <Sequence Accession>
P0C6U8

>  <Reference>
Bioorg. Med. Chem. 20 (19), 5928-5935 (2012)

>  <Pubmed ID>
22884354

>  <DOI>
10.1016/j.bmc.2012.07.038

>  <InChI-Key>
YFDKIHAZVQFLRC-HXUWFJFHSA-N

>  <Molecular Formula>
C20H18O5

>  <Monoisotopic Mass>
338.115425

>  <Druglikeness>
-9.937

$$$$
Compound 626
Actelion Java MolfileCreator 1.0

 25 28  0  0  0  0  0  0  0  0999 V2000
    0.0000   -0.0000   -0.0000 O   0  0  0  0  0  0  0  0  0  0  0  0
    1.2941   -0.7361   -0.0000 C   0  0  0  0  0  0  0  0  0  0  0  0
    1.2941   -2.2202   -0.0000 C   0  0  0  0  0  0  0  0  0  0  0  0
    2.5882    0.0237   -0.0000 C   0  0  0  0  0  0  0  0  0  0  0  0
    2.5882   -2.9563   -0.0000 C   0  0  0  0  0  0  0  0  0  0  0  0
   -0.0119   -2.9563   -0.0000 C   0  0  0  0  0  0  0  0  0  0  0  0
    2.5763    1.5434   -0.0000 O   0  0  0  0  0  0  0  0  0  0  0  0
    3.8823   -0.7124   -0.0000 C   0  0  0  0  0  0  0  0  0  0  0  0
    3.8704   -2.1964   -0.0000 C   0  0  0  0  0  0  0  0  0  0  0  0
    2.5763   -4.4522   -0.0000 C   0  0  0  0  0  0  0  0  0  0  0  0
   -0.0237   -4.4522   -0.0000 C   0  0  0  0  0  0  0  0  0  0  0  0
   -1.3297   -2.1845   -0.0000 C   0  0  0  0  0  0  0  0  0  0  0  0
    5.3070   -0.2375   -0.0000 C   0  0  0  0  0  0  0  0  0  0  0  0
    5.2833   -2.6594   -0.0000 O   0  0  0  0  0  0  0  0  0  0  0  0
    1.2585   -5.1883   -0.0000 C   0  0  0  0  0  0  0  0  0  0  0  0
   -1.3416   -5.1883   -0.0000 C   0  0  0  0  0  0  0  0  0  0  0  0
   -2.6476   -2.9325   -0.0000 C   0  0  0  0  0  0  0  0  0  0  0  0
    6.1737   -1.4484   -0.0000 C   0  0  0  0  0  0  0  0  0  0  0  0
    5.7700    1.2110   -0.0000 C   0  0  0  0  0  0  0  0  0  0  0  0
   -2.1133   -6.4705   -0.0000 C   0  0  0  0  0  0  0  0  0  0  0  0
   -2.6476   -4.4284   -0.0000 C   0  0  0  0  0  0  0  0  0  0  0  0
   -0.6055   -6.4824   -0.0000 C   0  0  0  0  0  0  0  0  0  0  0  0
   -1.3772   -7.7646   -0.0000 O   0  0  0  0  0  0  0  0  0  0  0  0
   -3.6330   -6.4586   -0.0000 O   0  0  0  0  0  0  0  0  0  0  0  0
   -4.3928   -5.1408   -0.0000 C   0  0  0  0  0  0  0  0  0  0  0  0
  1  2  2  0  0  0  0
  2  3  1  0  0  0  0
  2  4  1  0  0  0  0
  3  5  2  0  0  0  0
  3  6  1  0  0  0  0
  4  7  2  0  0  0  0
  4  8  1  0  0  0  0
  5  9  1  0  0  0  0
  5 10  1  0  0  0  0
  6 11  2  0  0  0  0
  6 12  1  0  0  0  0
  8 13  1  0  0  0  0
  9 14  1  0  0  0  0
 10 15  2  0  0  0  0
 11 16  1  0  0  0  0
 12 17  1  0  0  0  0
 13 18  2  0  0  0  0
 13 19  1  0  0  0  0
 16 20  1  0  0  0  0
 16 21  1  0  0  0  0
 16 22  1  1  0  0  0
 20 23  2  0  0  0  0
 20 24  1  0  0  0  0
 24 25  1  0  0  0  0
  8  9  2  0  0  0  0
 11 15  1  0  0  0  0
 14 18  1  0  0  0  0
 17 21  1  0  0  0  0
M  END
>  <MolRegNo>
1420008

>  <m>


>  <Value>
0

>  <Unit>


>  <Type>
Inhibition

>  <Ligand Efficiency>


>  <Binding Efficiency>


>  <Surface Efficiency>


>  <Assay Index>
678308

>  <Assay Category>


>  <Assay Organism>
SARS coronavirus

>  <Target ID>
20012

>  <Target Name>
SARS coronavirus 3C-like proteinase

>  <Target Organism>
SARS coronavirus

>  <Target Description>
Target is a single protein chain

>  <Sequence Accession>
P0C6U8

>  <Reference>
Bioorg. Med. Chem. 20 (19), 5928-5935 (2012)

>  <Pubmed ID>
22884354

>  <DOI>
10.1016/j.bmc.2012.07.038

>  <InChI-Key>
YFDKIHAZVQFLRC-HXUWFJFHSA-N

>  <Molecular Formula>
C20H18O5

>  <Monoisotopic Mass>
338.115425

>  <Druglikeness>
-9.937

$$$$
Compound 627
Actelion Java MolfileCreator 1.0

 25 28  0  0  0  0  0  0  0  0999 V2000
    0.0000   -0.0000   -0.0000 O   0  0  0  0  0  0  0  0  0  0  0  0
    1.2941   -0.7361   -0.0000 C   0  0  0  0  0  0  0  0  0  0  0  0
    1.2941   -2.2202   -0.0000 C   0  0  0  0  0  0  0  0  0  0  0  0
    2.5882    0.0237   -0.0000 C   0  0  0  0  0  0  0  0  0  0  0  0
    2.5882   -2.9563   -0.0000 C   0  0  0  0  0  0  0  0  0  0  0  0
   -0.0119   -2.9563   -0.0000 C   0  0  0  0  0  0  0  0  0  0  0  0
    2.5763    1.5434   -0.0000 O   0  0  0  0  0  0  0  0  0  0  0  0
    3.8823   -0.7124   -0.0000 C   0  0  0  0  0  0  0  0  0  0  0  0
    3.8704   -2.1964   -0.0000 C   0  0  0  0  0  0  0  0  0  0  0  0
    2.5763   -4.4522   -0.0000 C   0  0  0  0  0  0  0  0  0  0  0  0
   -0.0237   -4.4522   -0.0000 C   0  0  0  0  0  0  0  0  0  0  0  0
   -1.3297   -2.1845   -0.0000 C   0  0  0  0  0  0  0  0  0  0  0  0
    5.3070   -0.2375   -0.0000 C   0  0  0  0  0  0  0  0  0  0  0  0
    5.2833   -2.6594   -0.0000 O   0  0  0  0  0  0  0  0  0  0  0  0
    1.2585   -5.1883   -0.0000 C   0  0  0  0  0  0  0  0  0  0  0  0
   -1.3416   -5.1883   -0.0000 C   0  0  0  0  0  0  0  0  0  0  0  0
   -2.6476   -2.9325   -0.0000 C   0  0  0  0  0  0  0  0  0  0  0  0
    6.1737   -1.4484   -0.0000 C   0  0  0  0  0  0  0  0  0  0  0  0
    5.7700    1.2110   -0.0000 C   0  0  0  0  0  0  0  0  0  0  0  0
   -2.1133   -6.4705   -0.0000 C   0  0  0  0  0  0  0  0  0  0  0  0
   -2.6476   -4.4284   -0.0000 C   0  0  0  0  0  0  0  0  0  0  0  0
   -0.6055   -6.4824   -0.0000 C   0  0  0  0  0  0  0  0  0  0  0  0
   -1.3772   -7.7646   -0.0000 O   0  0  0  0  0  0  0  0  0  0  0  0
   -3.6330   -6.4586   -0.0000 O   0  0  0  0  0  0  0  0  0  0  0  0
   -4.3928   -5.1408   -0.0000 C   0  0  0  0  0  0  0  0  0  0  0  0
  1  2  2  0  0  0  0
  2  3  1  0  0  0  0
  2  4  1  0  0  0  0
  3  5  2  0  0  0  0
  3  6  1  0  0  0  0
  4  7  2  0  0  0  0
  4  8  1  0  0  0  0
  5  9  1  0  0  0  0
  5 10  1  0  0  0  0
  6 11  2  0  0  0  0
  6 12  1  0  0  0  0
  8 13  1  0  0  0  0
  9 14  1  0  0  0  0
 10 15  2  0  0  0  0
 11 16  1  0  0  0  0
 12 17  1  0  0  0  0
 13 18  2  0  0  0  0
 13 19  1  0  0  0  0
 16 20  1  0  0  0  0
 16 21  1  0  0  0  0
 16 22  1  1  0  0  0
 20 23  2  0  0  0  0
 20 24  1  0  0  0  0
 24 25  1  0  0  0  0
  8  9  2  0  0  0  0
 11 15  1  0  0  0  0
 14 18  1  0  0  0  0
 17 21  1  0  0  0  0
M  END
>  <MolRegNo>
1420008

>  <m>


>  <Value>
0

>  <Unit>


>  <Type>
Inhibition

>  <Ligand Efficiency>


>  <Binding Efficiency>


>  <Surface Efficiency>


>  <Assay Index>
678309

>  <Assay Category>


>  <Assay Organism>
SARS coronavirus

>  <Target ID>
20012

>  <Target Name>
SARS coronavirus 3C-like proteinase

>  <Target Organism>
SARS coronavirus

>  <Target Description>
Target is a single protein chain

>  <Sequence Accession>
P0C6U8

>  <Reference>
Bioorg. Med. Chem. 20 (19), 5928-5935 (2012)

>  <Pubmed ID>
22884354

>  <DOI>
10.1016/j.bmc.2012.07.038

>  <InChI-Key>
YFDKIHAZVQFLRC-HXUWFJFHSA-N

>  <Molecular Formula>
C20H18O5

>  <Monoisotopic Mass>
338.115425

>  <Druglikeness>
-9.937

$$$$
Compound 628
Actelion Java MolfileCreator 1.0

 25 28  0  0  0  0  0  0  0  0999 V2000
    0.0000   -0.0000   -0.0000 O   0  0  0  0  0  0  0  0  0  0  0  0
    1.2941   -0.7361   -0.0000 C   0  0  0  0  0  0  0  0  0  0  0  0
    1.2941   -2.2202   -0.0000 C   0  0  0  0  0  0  0  0  0  0  0  0
    2.5882    0.0237   -0.0000 C   0  0  0  0  0  0  0  0  0  0  0  0
    2.5882   -2.9563   -0.0000 C   0  0  0  0  0  0  0  0  0  0  0  0
   -0.0119   -2.9563   -0.0000 C   0  0  0  0  0  0  0  0  0  0  0  0
    2.5763    1.5434   -0.0000 O   0  0  0  0  0  0  0  0  0  0  0  0
    3.8823   -0.7124   -0.0000 C   0  0  0  0  0  0  0  0  0  0  0  0
    3.8704   -2.1964   -0.0000 C   0  0  0  0  0  0  0  0  0  0  0  0
    2.5763   -4.4522   -0.0000 C   0  0  0  0  0  0  0  0  0  0  0  0
   -0.0237   -4.4522   -0.0000 C   0  0  0  0  0  0  0  0  0  0  0  0
   -1.3297   -2.1845   -0.0000 C   0  0  0  0  0  0  0  0  0  0  0  0
    5.3070   -0.2375   -0.0000 C   0  0  0  0  0  0  0  0  0  0  0  0
    5.2833   -2.6594   -0.0000 O   0  0  0  0  0  0  0  0  0  0  0  0
    1.2585   -5.1883   -0.0000 C   0  0  0  0  0  0  0  0  0  0  0  0
   -1.3416   -5.1883   -0.0000 C   0  0  0  0  0  0  0  0  0  0  0  0
   -2.6476   -2.9325   -0.0000 C   0  0  0  0  0  0  0  0  0  0  0  0
    6.1737   -1.4484   -0.0000 C   0  0  0  0  0  0  0  0  0  0  0  0
    5.7700    1.2110   -0.0000 C   0  0  0  0  0  0  0  0  0  0  0  0
   -2.1133   -6.4705   -0.0000 C   0  0  0  0  0  0  0  0  0  0  0  0
   -2.6476   -4.4284   -0.0000 C   0  0  0  0  0  0  0  0  0  0  0  0
   -0.6055   -6.4824   -0.0000 C   0  0  0  0  0  0  0  0  0  0  0  0
   -1.3772   -7.7646   -0.0000 O   0  0  0  0  0  0  0  0  0  0  0  0
   -3.6330   -6.4586   -0.0000 O   0  0  0  0  0  0  0  0  0  0  0  0
   -4.3928   -5.1408   -0.0000 C   0  0  0  0  0  0  0  0  0  0  0  0
  1  2  2  0  0  0  0
  2  3  1  0  0  0  0
  2  4  1  0  0  0  0
  3  5  2  0  0  0  0
  3  6  1  0  0  0  0
  4  7  2  0  0  0  0
  4  8  1  0  0  0  0
  5  9  1  0  0  0  0
  5 10  1  0  0  0  0
  6 11  2  0  0  0  0
  6 12  1  0  0  0  0
  8 13  1  0  0  0  0
  9 14  1  0  0  0  0
 10 15  2  0  0  0  0
 11 16  1  0  0  0  0
 12 17  1  0  0  0  0
 13 18  2  0  0  0  0
 13 19  1  0  0  0  0
 16 20  1  0  0  0  0
 16 21  1  0  0  0  0
 16 22  1  1  0  0  0
 20 23  2  0  0  0  0
 20 24  1  0  0  0  0
 24 25  1  0  0  0  0
  8  9  2  0  0  0  0
 11 15  1  0  0  0  0
 14 18  1  0  0  0  0
 17 21  1  0  0  0  0
M  END
>  <MolRegNo>
1420008

>  <m>


>  <Value>
0

>  <Unit>


>  <Type>
Inhibition

>  <Ligand Efficiency>


>  <Binding Efficiency>


>  <Surface Efficiency>


>  <Assay Index>
678312

>  <Assay Category>


>  <Assay Organism>
SARS coronavirus

>  <Target ID>
20012

>  <Target Name>
SARS coronavirus 3C-like proteinase

>  <Target Organism>
SARS coronavirus

>  <Target Description>
Target is a single protein chain

>  <Sequence Accession>
P0C6U8

>  <Reference>
Bioorg. Med. Chem. 20 (19), 5928-5935 (2012)

>  <Pubmed ID>
22884354

>  <DOI>
10.1016/j.bmc.2012.07.038

>  <InChI-Key>
YFDKIHAZVQFLRC-HXUWFJFHSA-N

>  <Molecular Formula>
C20H18O5

>  <Monoisotopic Mass>
338.115425

>  <Druglikeness>
-9.937

$$$$
Compound 629
Actelion Java MolfileCreator 1.0

 25 28  0  0  0  0  0  0  0  0999 V2000
    0.0000   -0.0000   -0.0000 O   0  0  0  0  0  0  0  0  0  0  0  0
    1.2941   -0.7361   -0.0000 C   0  0  0  0  0  0  0  0  0  0  0  0
    1.2941   -2.2202   -0.0000 C   0  0  0  0  0  0  0  0  0  0  0  0
    2.5882    0.0237   -0.0000 C   0  0  0  0  0  0  0  0  0  0  0  0
    2.5882   -2.9563   -0.0000 C   0  0  0  0  0  0  0  0  0  0  0  0
   -0.0119   -2.9563   -0.0000 C   0  0  0  0  0  0  0  0  0  0  0  0
    2.5763    1.5434   -0.0000 O   0  0  0  0  0  0  0  0  0  0  0  0
    3.8823   -0.7124   -0.0000 C   0  0  0  0  0  0  0  0  0  0  0  0
    3.8704   -2.1964   -0.0000 C   0  0  0  0  0  0  0  0  0  0  0  0
    2.5763   -4.4522   -0.0000 C   0  0  0  0  0  0  0  0  0  0  0  0
   -0.0237   -4.4522   -0.0000 C   0  0  0  0  0  0  0  0  0  0  0  0
   -1.3297   -2.1845   -0.0000 C   0  0  0  0  0  0  0  0  0  0  0  0
    5.3070   -0.2375   -0.0000 C   0  0  0  0  0  0  0  0  0  0  0  0
    5.2833   -2.6594   -0.0000 O   0  0  0  0  0  0  0  0  0  0  0  0
    1.2585   -5.1883   -0.0000 C   0  0  0  0  0  0  0  0  0  0  0  0
   -1.3416   -5.1883   -0.0000 C   0  0  0  0  0  0  0  0  0  0  0  0
   -2.6476   -2.9325   -0.0000 C   0  0  0  0  0  0  0  0  0  0  0  0
    6.1737   -1.4484   -0.0000 C   0  0  0  0  0  0  0  0  0  0  0  0
    5.7700    1.2110   -0.0000 C   0  0  0  0  0  0  0  0  0  0  0  0
   -2.1133   -6.4705   -0.0000 C   0  0  0  0  0  0  0  0  0  0  0  0
   -2.6476   -4.4284   -0.0000 C   0  0  0  0  0  0  0  0  0  0  0  0
   -0.6055   -6.4824   -0.0000 C   0  0  0  0  0  0  0  0  0  0  0  0
   -1.3772   -7.7646   -0.0000 O   0  0  0  0  0  0  0  0  0  0  0  0
   -3.6330   -6.4586   -0.0000 O   0  0  0  0  0  0  0  0  0  0  0  0
   -4.3928   -5.1408   -0.0000 C   0  0  0  0  0  0  0  0  0  0  0  0
  1  2  2  0  0  0  0
  2  3  1  0  0  0  0
  2  4  1  0  0  0  0
  3  5  2  0  0  0  0
  3  6  1  0  0  0  0
  4  7  2  0  0  0  0
  4  8  1  0  0  0  0
  5  9  1  0  0  0  0
  5 10  1  0  0  0  0
  6 11  2  0  0  0  0
  6 12  1  0  0  0  0
  8 13  1  0  0  0  0
  9 14  1  0  0  0  0
 10 15  2  0  0  0  0
 11 16  1  0  0  0  0
 12 17  1  0  0  0  0
 13 18  2  0  0  0  0
 13 19  1  0  0  0  0
 16 20  1  0  0  0  0
 16 21  1  0  0  0  0
 16 22  1  1  0  0  0
 20 23  2  0  0  0  0
 20 24  1  0  0  0  0
 24 25  1  0  0  0  0
  8  9  2  0  0  0  0
 11 15  1  0  0  0  0
 14 18  1  0  0  0  0
 17 21  1  0  0  0  0
M  END
>  <MolRegNo>
1420008

>  <m>


>  <Value>
0

>  <Unit>


>  <Type>
Inhibition

>  <Ligand Efficiency>


>  <Binding Efficiency>


>  <Surface Efficiency>


>  <Assay Index>
678313

>  <Assay Category>


>  <Assay Organism>
SARS coronavirus

>  <Target ID>
20012

>  <Target Name>
SARS coronavirus 3C-like proteinase

>  <Target Organism>
SARS coronavirus

>  <Target Description>
Target is a single protein chain

>  <Sequence Accession>
P0C6U8

>  <Reference>
Bioorg. Med. Chem. 20 (19), 5928-5935 (2012)

>  <Pubmed ID>
22884354

>  <DOI>
10.1016/j.bmc.2012.07.038

>  <InChI-Key>
YFDKIHAZVQFLRC-HXUWFJFHSA-N

>  <Molecular Formula>
C20H18O5

>  <Monoisotopic Mass>
338.115425

>  <Druglikeness>
-9.937

$$$$
Compound 630
Actelion Java MolfileCreator 1.0

 25 28  0  0  0  0  0  0  0  0999 V2000
    0.0000   -0.0000   -0.0000 O   0  0  0  0  0  0  0  0  0  0  0  0
    1.2941   -0.7361   -0.0000 C   0  0  0  0  0  0  0  0  0  0  0  0
    1.2941   -2.2202   -0.0000 C   0  0  0  0  0  0  0  0  0  0  0  0
    2.5882    0.0237   -0.0000 C   0  0  0  0  0  0  0  0  0  0  0  0
    2.5882   -2.9563   -0.0000 C   0  0  0  0  0  0  0  0  0  0  0  0
   -0.0119   -2.9563   -0.0000 C   0  0  0  0  0  0  0  0  0  0  0  0
    2.5763    1.5434   -0.0000 O   0  0  0  0  0  0  0  0  0  0  0  0
    3.8823   -0.7124   -0.0000 C   0  0  0  0  0  0  0  0  0  0  0  0
    3.8704   -2.1964   -0.0000 C   0  0  0  0  0  0  0  0  0  0  0  0
    2.5763   -4.4522   -0.0000 C   0  0  0  0  0  0  0  0  0  0  0  0
   -0.0237   -4.4522   -0.0000 C   0  0  0  0  0  0  0  0  0  0  0  0
   -1.3297   -2.1845   -0.0000 C   0  0  0  0  0  0  0  0  0  0  0  0
    5.3070   -0.2375   -0.0000 C   0  0  0  0  0  0  0  0  0  0  0  0
    5.2833   -2.6594   -0.0000 O   0  0  0  0  0  0  0  0  0  0  0  0
    1.2585   -5.1883   -0.0000 C   0  0  0  0  0  0  0  0  0  0  0  0
   -1.3416   -5.1883   -0.0000 C   0  0  0  0  0  0  0  0  0  0  0  0
   -2.6476   -2.9325   -0.0000 C   0  0  0  0  0  0  0  0  0  0  0  0
    6.1737   -1.4484   -0.0000 C   0  0  0  0  0  0  0  0  0  0  0  0
    5.7700    1.2110   -0.0000 C   0  0  0  0  0  0  0  0  0  0  0  0
   -2.1133   -6.4705   -0.0000 C   0  0  0  0  0  0  0  0  0  0  0  0
   -2.6476   -4.4284   -0.0000 C   0  0  0  0  0  0  0  0  0  0  0  0
   -0.6055   -6.4824   -0.0000 C   0  0  0  0  0  0  0  0  0  0  0  0
   -1.3772   -7.7646   -0.0000 O   0  0  0  0  0  0  0  0  0  0  0  0
   -3.6330   -6.4586   -0.0000 O   0  0  0  0  0  0  0  0  0  0  0  0
   -4.3928   -5.1408   -0.0000 C   0  0  0  0  0  0  0  0  0  0  0  0
  1  2  2  0  0  0  0
  2  3  1  0  0  0  0
  2  4  1  0  0  0  0
  3  5  2  0  0  0  0
  3  6  1  0  0  0  0
  4  7  2  0  0  0  0
  4  8  1  0  0  0  0
  5  9  1  0  0  0  0
  5 10  1  0  0  0  0
  6 11  2  0  0  0  0
  6 12  1  0  0  0  0
  8 13  1  0  0  0  0
  9 14  1  0  0  0  0
 10 15  2  0  0  0  0
 11 16  1  0  0  0  0
 12 17  1  0  0  0  0
 13 18  2  0  0  0  0
 13 19  1  0  0  0  0
 16 20  1  0  0  0  0
 16 21  1  0  0  0  0
 16 22  1  1  0  0  0
 20 23  2  0  0  0  0
 20 24  1  0  0  0  0
 24 25  1  0  0  0  0
  8  9  2  0  0  0  0
 11 15  1  0  0  0  0
 14 18  1  0  0  0  0
 17 21  1  0  0  0  0
M  END
>  <MolRegNo>
1420008

>  <m>


>  <Value>
0

>  <Unit>


>  <Type>
Inhibition

>  <Ligand Efficiency>


>  <Binding Efficiency>


>  <Surface Efficiency>


>  <Assay Index>
678191

>  <Assay Category>


>  <Assay Organism>
SARS coronavirus

>  <Target ID>
20012

>  <Target Name>
SARS coronavirus 3C-like proteinase

>  <Target Organism>
SARS coronavirus

>  <Target Description>
Target is a single protein chain

>  <Sequence Accession>
P0C6U8

>  <Reference>
Bioorg. Med. Chem. 20 (19), 5928-5935 (2012)

>  <Pubmed ID>
22884354

>  <DOI>
10.1016/j.bmc.2012.07.038

>  <InChI-Key>
YFDKIHAZVQFLRC-HXUWFJFHSA-N

>  <Molecular Formula>
C20H18O5

>  <Monoisotopic Mass>
338.115425

>  <Druglikeness>
-9.937

$$$$
Compound 631
Actelion Java MolfileCreator 1.0

 25 28  0  0  0  0  0  0  0  0999 V2000
    0.0000   -0.0000   -0.0000 O   0  0  0  0  0  0  0  0  0  0  0  0
    1.2941   -0.7361   -0.0000 C   0  0  0  0  0  0  0  0  0  0  0  0
    1.2941   -2.2202   -0.0000 C   0  0  0  0  0  0  0  0  0  0  0  0
    2.5882    0.0237   -0.0000 C   0  0  0  0  0  0  0  0  0  0  0  0
    2.5882   -2.9563   -0.0000 C   0  0  0  0  0  0  0  0  0  0  0  0
   -0.0119   -2.9563   -0.0000 C   0  0  0  0  0  0  0  0  0  0  0  0
    2.5763    1.5434   -0.0000 O   0  0  0  0  0  0  0  0  0  0  0  0
    3.8823   -0.7124   -0.0000 C   0  0  0  0  0  0  0  0  0  0  0  0
    3.8704   -2.1964   -0.0000 C   0  0  0  0  0  0  0  0  0  0  0  0
    2.5763   -4.4522   -0.0000 C   0  0  0  0  0  0  0  0  0  0  0  0
   -0.0237   -4.4522   -0.0000 C   0  0  0  0  0  0  0  0  0  0  0  0
   -1.3297   -2.1845   -0.0000 C   0  0  0  0  0  0  0  0  0  0  0  0
    5.3070   -0.2375   -0.0000 C   0  0  0  0  0  0  0  0  0  0  0  0
    5.2833   -2.6594   -0.0000 O   0  0  0  0  0  0  0  0  0  0  0  0
    1.2585   -5.1883   -0.0000 C   0  0  0  0  0  0  0  0  0  0  0  0
   -1.3416   -5.1883   -0.0000 C   0  0  0  0  0  0  0  0  0  0  0  0
   -2.6476   -2.9325   -0.0000 C   0  0  0  0  0  0  0  0  0  0  0  0
    6.1737   -1.4484   -0.0000 C   0  0  0  0  0  0  0  0  0  0  0  0
    5.7700    1.2110   -0.0000 C   0  0  0  0  0  0  0  0  0  0  0  0
   -2.1133   -6.4705   -0.0000 C   0  0  0  0  0  0  0  0  0  0  0  0
   -2.6476   -4.4284   -0.0000 C   0  0  0  0  0  0  0  0  0  0  0  0
   -0.6055   -6.4824   -0.0000 C   0  0  0  0  0  0  0  0  0  0  0  0
   -1.3772   -7.7646   -0.0000 O   0  0  0  0  0  0  0  0  0  0  0  0
   -3.6330   -6.4586   -0.0000 O   0  0  0  0  0  0  0  0  0  0  0  0
   -4.3928   -5.1408   -0.0000 C   0  0  0  0  0  0  0  0  0  0  0  0
  1  2  2  0  0  0  0
  2  3  1  0  0  0  0
  2  4  1  0  0  0  0
  3  5  2  0  0  0  0
  3  6  1  0  0  0  0
  4  7  2  0  0  0  0
  4  8  1  0  0  0  0
  5  9  1  0  0  0  0
  5 10  1  0  0  0  0
  6 11  2  0  0  0  0
  6 12  1  0  0  0  0
  8 13  1  0  0  0  0
  9 14  1  0  0  0  0
 10 15  2  0  0  0  0
 11 16  1  0  0  0  0
 12 17  1  0  0  0  0
 13 18  2  0  0  0  0
 13 19  1  0  0  0  0
 16 20  1  0  0  0  0
 16 21  1  0  0  0  0
 16 22  1  1  0  0  0
 20 23  2  0  0  0  0
 20 24  1  0  0  0  0
 24 25  1  0  0  0  0
  8  9  2  0  0  0  0
 11 15  1  0  0  0  0
 14 18  1  0  0  0  0
 17 21  1  0  0  0  0
M  END
>  <MolRegNo>
1420008

>  <m>
=

>  <Value>
9700

>  <Unit>
nM

>  <Type>
Ki

>  <Ligand Efficiency>
0.27

>  <Binding Efficiency>
14.82

>  <Surface Efficiency>
6.81

>  <Assay Index>
678192

>  <Assay Category>


>  <Assay Organism>
SARS coronavirus

>  <Target ID>
20012

>  <Target Name>
SARS coronavirus 3C-like proteinase

>  <Target Organism>
SARS coronavirus

>  <Target Description>
Target is a single protein chain

>  <Sequence Accession>
P0C6U8

>  <Reference>
Bioorg. Med. Chem. 20 (19), 5928-5935 (2012)

>  <Pubmed ID>
22884354

>  <DOI>
10.1016/j.bmc.2012.07.038

>  <InChI-Key>
YFDKIHAZVQFLRC-HXUWFJFHSA-N

>  <Molecular Formula>
C20H18O5

>  <Monoisotopic Mass>
338.115425

>  <Druglikeness>
-9.937

$$$$
Compound 632
Actelion Java MolfileCreator 1.0

 43 45  0  0  1  0  0  0  0  0999 V2000
    0.0000   -0.0000   -0.0000 O   0  0  0  0  0  0  0  0  0  0  0  0
    1.1077   -0.9886   -0.0000 C   0  0  0  0  0  0  0  0  0  0  0  0
    2.5608   -0.6551   -0.0000 N   0  0  0  0  0  0  0  0  0  0  0  0
    0.9528   -2.4655   -0.0000 C   0  0  0  0  0  0  0  0  0  0  0  0
    3.2992   -1.9414   -0.0000 C   0  0  0  0  0  0  0  0  0  0  0  0
    2.3106   -3.0610   -0.0000 C   0  0  0  0  0  0  0  0  0  0  0  0
   -0.3573   -3.2039   -0.0000 C   0  0  0  0  0  0  0  0  0  0  0  0
   -0.3692   -4.6927   -0.0000 C   0  0  0  0  0  0  0  0  0  0  0  0
   -1.6794   -5.4312   -0.0000 N   0  0  0  0  0  0  0  0  0  0  0  0
    0.9171   -5.4312   -0.0000 C   0  0  0  0  0  0  0  0  0  0  0  0
   -2.9895   -4.6689   -0.0000 C   0  0  0  0  0  0  0  0  0  0  0  0
    0.9052   -6.9200   -0.0000 O   0  0  0  0  0  0  0  0  0  0  0  0
   -3.0014   -3.1563   -0.0000 O   0  0  0  0  0  0  0  0  0  0  0  0
   -4.2997   -5.4074   -0.0000 C   0  0  0  0  0  0  0  0  0  0  0  0
   -5.6098   -4.6451   -0.0000 N   0  0  0  0  0  0  0  0  0  0  0  0
   -4.3116   -6.8962   -0.0000 C   0  0  0  0  0  0  0  0  0  0  0  0
   -6.9200   -5.3835   -0.0000 C   0  0  0  0  0  0  0  0  0  0  0  0
   -3.0253   -7.6346   -0.0000 C   0  0  0  0  0  0  0  0  0  0  0  0
   -6.9319   -6.8723   -0.0000 O   0  0  0  0  0  0  0  0  0  0  0  0
   -8.2301   -4.6213   -0.0000 C   0  0  0  0  0  0  0  0  0  0  0  0
   -3.0372   -9.1234   -0.0000 C   0  0  0  0  0  0  0  0  0  0  0  0
   -1.7389   -6.8723   -0.0000 C   0  0  0  0  0  0  0  0  0  0  0  0
   -9.5403   -5.3597   -0.0000 N   0  0  0  0  0  0  0  0  0  0  0  0
   -8.2420   -3.1086   -0.0000 C   0  0  0  0  0  0  0  0  0  0  0  0
   -1.7508   -9.8619   -0.0000 C   0  0  0  0  0  0  0  0  0  0  0  0
   -0.4526   -7.6108   -0.0000 C   0  0  0  0  0  0  0  0  0  0  0  0
  -10.8504   -4.5974   -0.0000 C   0  0  0  0  0  0  0  0  0  0  0  0
   -6.9557   -2.3464   -0.0000 O   0  0  0  0  0  0  0  0  0  0  0  0
   -9.5522   -2.3464   -0.0000 C   0  0  0  0  0  0  0  0  0  0  0  0
   -0.4645   -9.0996   -0.0000 C   0  0  0  0  0  0  0  0  0  0  0  0
  -10.8624   -3.0848   -0.0000 O   0  0  0  0  0  0  0  0  0  0  0  0
  -12.1606   -5.3359   -0.0000 O   0  0  0  0  0  0  0  0  0  0  0  0
   -6.9676   -0.8337   -0.0000 C   0  0  0  0  0  0  0  0  0  0  0  0
  -13.4707   -4.5736   -0.0000 C   0  0  0  0  0  0  0  0  0  0  0  0
   -6.9914    0.6789   -0.0000 C   0  0  0  0  0  0  0  0  0  0  0  0
   -5.4788   -0.8099   -0.0000 C   0  0  0  0  0  0  0  0  0  0  0  0
   -8.4803   -0.8337   -0.0000 C   0  0  0  0  0  0  0  0  0  0  0  0
  -14.7809   -5.3121   -0.0000 C   0  0  0  0  0  0  0  0  0  0  0  0
  -16.0911   -4.5498   -0.0000 C   0  0  0  0  0  0  0  0  0  0  0  0
  -14.7928   -6.8128   -0.0000 C   0  0  0  0  0  0  0  0  0  0  0  0
  -17.4012   -5.2883   -0.0000 C   0  0  0  0  0  0  0  0  0  0  0  0
  -16.1149   -7.5512   -0.0000 C   0  0  0  0  0  0  0  0  0  0  0  0
  -17.4131   -6.7890   -0.0000 C   0  0  0  0  0  0  0  0  0  0  0  0
  1  2  2  0  0  0  0
  2  3  1  0  0  0  0
  2  4  1  0  0  0  0
  3  5  1  0  0  0  0
  4  6  1  0  0  0  0
  4  7  1  1  0  0  0
  7  8  1  0  0  0  0
  8  9  1  1  0  0  0
  8 10  1  0  0  0  0
  9 11  1  0  0  0  0
 10 12  2  0  0  0  0
 11 13  2  0  0  0  0
 11 14  1  0  0  0  0
 14 15  1  6  0  0  0
 14 16  1  0  0  0  0
 15 17  1  0  0  0  0
 16 18  1  0  0  0  0
 17 19  2  0  0  0  0
 17 20  1  0  0  0  0
 18 21  1  0  0  0  0
 18 22  1  0  0  0  0
 20 23  1  1  0  0  0
 20 24  1  0  0  0  0
 21 25  1  0  0  0  0
 22 26  1  0  0  0  0
 23 27  1  0  0  0  0
 24 28  1  0  0  0  0
 24 29  1  0  0  0  0
 25 30  1  0  0  0  0
 27 31  2  0  0  0  0
 27 32  1  0  0  0  0
 28 33  1  0  0  0  0
 32 34  1  0  0  0  0
 33 35  1  0  0  0  0
 33 36  1  0  0  0  0
 33 37  1  0  0  0  0
 34 38  1  0  0  0  0
 38 39  2  0  0  0  0
 38 40  1  0  0  0  0
 39 41  1  0  0  0  0
 40 42  2  0  0  0  0
 41 43  2  0  0  0  0
  5  6  1  0  0  0  0
 26 30  1  0  0  0  0
 42 43  1  0  0  0  0
M  END
>  <MolRegNo>
356578

>  <m>
=

>  <Value>
53

>  <Unit>
nM

>  <Type>
Ki

>  <Ligand Efficiency>
0.23

>  <Binding Efficiency>
12.11

>  <Surface Efficiency>
4.79

>  <Assay Index>
265844

>  <Assay Category>


>  <Assay Organism>
SARS coronavirus

>  <Target ID>
20012

>  <Target Name>
SARS coronavirus 3C-like proteinase

>  <Target Organism>
SARS coronavirus

>  <Target Description>
Target is a single protein chain

>  <Sequence Accession>
P0C6U8

>  <Reference>
J. Med. Chem. 49 (16), 4971-4980 (2006)

>  <Pubmed ID>
16884309

>  <DOI>
10.1021/jm0603926

>  <InChI-Key>
YFUZVOLEKQFVCQ-OKCRAPNYSA-N

>  <Molecular Formula>
C32H48N4O7

>  <Monoisotopic Mass>
600.352301

>  <Druglikeness>
-35.214

$$$$
Compound 633
Actelion Java MolfileCreator 1.0

 43 45  0  0  1  0  0  0  0  0999 V2000
    0.0000   -0.0000   -0.0000 O   0  0  0  0  0  0  0  0  0  0  0  0
    1.1077   -0.9886   -0.0000 C   0  0  0  0  0  0  0  0  0  0  0  0
    2.5608   -0.6551   -0.0000 N   0  0  0  0  0  0  0  0  0  0  0  0
    0.9528   -2.4655   -0.0000 C   0  0  0  0  0  0  0  0  0  0  0  0
    3.2992   -1.9414   -0.0000 C   0  0  0  0  0  0  0  0  0  0  0  0
    2.3106   -3.0610   -0.0000 C   0  0  0  0  0  0  0  0  0  0  0  0
   -0.3573   -3.2039   -0.0000 C   0  0  0  0  0  0  0  0  0  0  0  0
   -0.3692   -4.6927   -0.0000 C   0  0  0  0  0  0  0  0  0  0  0  0
   -1.6794   -5.4312   -0.0000 N   0  0  0  0  0  0  0  0  0  0  0  0
    0.9171   -5.4312   -0.0000 C   0  0  0  0  0  0  0  0  0  0  0  0
   -2.9895   -4.6689   -0.0000 C   0  0  0  0  0  0  0  0  0  0  0  0
    0.9052   -6.9200   -0.0000 O   0  0  0  0  0  0  0  0  0  0  0  0
   -3.0014   -3.1563   -0.0000 O   0  0  0  0  0  0  0  0  0  0  0  0
   -4.2997   -5.4074   -0.0000 C   0  0  0  0  0  0  0  0  0  0  0  0
   -5.6098   -4.6451   -0.0000 N   0  0  0  0  0  0  0  0  0  0  0  0
   -4.3116   -6.8962   -0.0000 C   0  0  0  0  0  0  0  0  0  0  0  0
   -6.9200   -5.3835   -0.0000 C   0  0  0  0  0  0  0  0  0  0  0  0
   -3.0253   -7.6346   -0.0000 C   0  0  0  0  0  0  0  0  0  0  0  0
   -6.9319   -6.8723   -0.0000 O   0  0  0  0  0  0  0  0  0  0  0  0
   -8.2301   -4.6213   -0.0000 C   0  0  0  0  0  0  0  0  0  0  0  0
   -3.0372   -9.1234   -0.0000 C   0  0  0  0  0  0  0  0  0  0  0  0
   -1.7389   -6.8723   -0.0000 C   0  0  0  0  0  0  0  0  0  0  0  0
   -9.5403   -5.3597   -0.0000 N   0  0  0  0  0  0  0  0  0  0  0  0
   -8.2420   -3.1086   -0.0000 C   0  0  0  0  0  0  0  0  0  0  0  0
   -1.7508   -9.8619   -0.0000 C   0  0  0  0  0  0  0  0  0  0  0  0
   -0.4526   -7.6108   -0.0000 C   0  0  0  0  0  0  0  0  0  0  0  0
  -10.8504   -4.5974   -0.0000 C   0  0  0  0  0  0  0  0  0  0  0  0
   -6.9557   -2.3464   -0.0000 O   0  0  0  0  0  0  0  0  0  0  0  0
   -9.5522   -2.3464   -0.0000 C   0  0  0  0  0  0  0  0  0  0  0  0
   -0.4645   -9.0996   -0.0000 C   0  0  0  0  0  0  0  0  0  0  0  0
  -10.8624   -3.0848   -0.0000 O   0  0  0  0  0  0  0  0  0  0  0  0
  -12.1606   -5.3359   -0.0000 O   0  0  0  0  0  0  0  0  0  0  0  0
   -6.9676   -0.8337   -0.0000 C   0  0  0  0  0  0  0  0  0  0  0  0
  -13.4707   -4.5736   -0.0000 C   0  0  0  0  0  0  0  0  0  0  0  0
   -6.9914    0.6789   -0.0000 C   0  0  0  0  0  0  0  0  0  0  0  0
   -5.4788   -0.8099   -0.0000 C   0  0  0  0  0  0  0  0  0  0  0  0
   -8.4803   -0.8337   -0.0000 C   0  0  0  0  0  0  0  0  0  0  0  0
  -14.7809   -5.3121   -0.0000 C   0  0  0  0  0  0  0  0  0  0  0  0
  -16.0911   -4.5498   -0.0000 C   0  0  0  0  0  0  0  0  0  0  0  0
  -14.7928   -6.8128   -0.0000 C   0  0  0  0  0  0  0  0  0  0  0  0
  -17.4012   -5.2883   -0.0000 C   0  0  0  0  0  0  0  0  0  0  0  0
  -16.1149   -7.5512   -0.0000 C   0  0  0  0  0  0  0  0  0  0  0  0
  -17.4131   -6.7890   -0.0000 C   0  0  0  0  0  0  0  0  0  0  0  0
  1  2  2  0  0  0  0
  2  3  1  0  0  0  0
  2  4  1  0  0  0  0
  3  5  1  0  0  0  0
  4  6  1  0  0  0  0
  4  7  1  1  0  0  0
  7  8  1  0  0  0  0
  8  9  1  1  0  0  0
  8 10  1  0  0  0  0
  9 11  1  0  0  0  0
 10 12  2  0  0  0  0
 11 13  2  0  0  0  0
 11 14  1  0  0  0  0
 14 15  1  6  0  0  0
 14 16  1  0  0  0  0
 15 17  1  0  0  0  0
 16 18  1  0  0  0  0
 17 19  2  0  0  0  0
 17 20  1  0  0  0  0
 18 21  1  0  0  0  0
 18 22  1  0  0  0  0
 20 23  1  1  0  0  0
 20 24  1  0  0  0  0
 21 25  1  0  0  0  0
 22 26  1  0  0  0  0
 23 27  1  0  0  0  0
 24 28  1  0  0  0  0
 24 29  1  0  0  0  0
 25 30  1  0  0  0  0
 27 31  2  0  0  0  0
 27 32  1  0  0  0  0
 28 33  1  0  0  0  0
 32 34  1  0  0  0  0
 33 35  1  0  0  0  0
 33 36  1  0  0  0  0
 33 37  1  0  0  0  0
 34 38  1  0  0  0  0
 38 39  2  0  0  0  0
 38 40  1  0  0  0  0
 39 41  1  0  0  0  0
 40 42  2  0  0  0  0
 41 43  2  0  0  0  0
  5  6  1  0  0  0  0
 26 30  1  0  0  0  0
 42 43  1  0  0  0  0
M  END
>  <MolRegNo>
356578

>  <m>
=

>  <Value>
6.7

>  <Unit>
-

>  <Type>
log10 TCID50

>  <Ligand Efficiency>


>  <Binding Efficiency>


>  <Surface Efficiency>


>  <Assay Index>
265857

>  <Assay Category>


>  <Assay Organism>
SARS coronavirus

>  <Target ID>
100499

>  <Target Name>
SARS coronavirus

>  <Target Organism>
SARS coronavirus

>  <Target Description>
Target is a complete organism

>  <Sequence Accession>


>  <Reference>
J. Med. Chem. 49 (16), 4971-4980 (2006)

>  <Pubmed ID>
16884309

>  <DOI>
10.1021/jm0603926

>  <InChI-Key>
YFUZVOLEKQFVCQ-OKCRAPNYSA-N

>  <Molecular Formula>
C32H48N4O7

>  <Monoisotopic Mass>
600.352301

>  <Druglikeness>
-35.214

$$$$
Compound 634
Actelion Java MolfileCreator 1.0

 43 45  0  0  1  0  0  0  0  0999 V2000
    0.0000   -0.0000   -0.0000 O   0  0  0  0  0  0  0  0  0  0  0  0
    1.1077   -0.9886   -0.0000 C   0  0  0  0  0  0  0  0  0  0  0  0
    2.5608   -0.6551   -0.0000 N   0  0  0  0  0  0  0  0  0  0  0  0
    0.9528   -2.4655   -0.0000 C   0  0  0  0  0  0  0  0  0  0  0  0
    3.2992   -1.9414   -0.0000 C   0  0  0  0  0  0  0  0  0  0  0  0
    2.3106   -3.0610   -0.0000 C   0  0  0  0  0  0  0  0  0  0  0  0
   -0.3573   -3.2039   -0.0000 C   0  0  0  0  0  0  0  0  0  0  0  0
   -0.3692   -4.6927   -0.0000 C   0  0  0  0  0  0  0  0  0  0  0  0
   -1.6794   -5.4312   -0.0000 N   0  0  0  0  0  0  0  0  0  0  0  0
    0.9171   -5.4312   -0.0000 C   0  0  0  0  0  0  0  0  0  0  0  0
   -2.9895   -4.6689   -0.0000 C   0  0  0  0  0  0  0  0  0  0  0  0
    0.9052   -6.9200   -0.0000 O   0  0  0  0  0  0  0  0  0  0  0  0
   -3.0014   -3.1563   -0.0000 O   0  0  0  0  0  0  0  0  0  0  0  0
   -4.2997   -5.4074   -0.0000 C   0  0  0  0  0  0  0  0  0  0  0  0
   -5.6098   -4.6451   -0.0000 N   0  0  0  0  0  0  0  0  0  0  0  0
   -4.3116   -6.8962   -0.0000 C   0  0  0  0  0  0  0  0  0  0  0  0
   -6.9200   -5.3835   -0.0000 C   0  0  0  0  0  0  0  0  0  0  0  0
   -3.0253   -7.6346   -0.0000 C   0  0  0  0  0  0  0  0  0  0  0  0
   -6.9319   -6.8723   -0.0000 O   0  0  0  0  0  0  0  0  0  0  0  0
   -8.2301   -4.6213   -0.0000 C   0  0  0  0  0  0  0  0  0  0  0  0
   -3.0372   -9.1234   -0.0000 C   0  0  0  0  0  0  0  0  0  0  0  0
   -1.7389   -6.8723   -0.0000 C   0  0  0  0  0  0  0  0  0  0  0  0
   -9.5403   -5.3597   -0.0000 N   0  0  0  0  0  0  0  0  0  0  0  0
   -8.2420   -3.1086   -0.0000 C   0  0  0  0  0  0  0  0  0  0  0  0
   -1.7508   -9.8619   -0.0000 C   0  0  0  0  0  0  0  0  0  0  0  0
   -0.4526   -7.6108   -0.0000 C   0  0  0  0  0  0  0  0  0  0  0  0
  -10.8504   -4.5974   -0.0000 C   0  0  0  0  0  0  0  0  0  0  0  0
   -6.9557   -2.3464   -0.0000 O   0  0  0  0  0  0  0  0  0  0  0  0
   -9.5522   -2.3464   -0.0000 C   0  0  0  0  0  0  0  0  0  0  0  0
   -0.4645   -9.0996   -0.0000 C   0  0  0  0  0  0  0  0  0  0  0  0
  -10.8624   -3.0848   -0.0000 O   0  0  0  0  0  0  0  0  0  0  0  0
  -12.1606   -5.3359   -0.0000 O   0  0  0  0  0  0  0  0  0  0  0  0
   -6.9676   -0.8337   -0.0000 C   0  0  0  0  0  0  0  0  0  0  0  0
  -13.4707   -4.5736   -0.0000 C   0  0  0  0  0  0  0  0  0  0  0  0
   -6.9914    0.6789   -0.0000 C   0  0  0  0  0  0  0  0  0  0  0  0
   -5.4788   -0.8099   -0.0000 C   0  0  0  0  0  0  0  0  0  0  0  0
   -8.4803   -0.8337   -0.0000 C   0  0  0  0  0  0  0  0  0  0  0  0
  -14.7809   -5.3121   -0.0000 C   0  0  0  0  0  0  0  0  0  0  0  0
  -16.0911   -4.5498   -0.0000 C   0  0  0  0  0  0  0  0  0  0  0  0
  -14.7928   -6.8128   -0.0000 C   0  0  0  0  0  0  0  0  0  0  0  0
  -17.4012   -5.2883   -0.0000 C   0  0  0  0  0  0  0  0  0  0  0  0
  -16.1149   -7.5512   -0.0000 C   0  0  0  0  0  0  0  0  0  0  0  0
  -17.4131   -6.7890   -0.0000 C   0  0  0  0  0  0  0  0  0  0  0  0
  1  2  2  0  0  0  0
  2  3  1  0  0  0  0
  2  4  1  0  0  0  0
  3  5  1  0  0  0  0
  4  6  1  0  0  0  0
  4  7  1  1  0  0  0
  7  8  1  0  0  0  0
  8  9  1  1  0  0  0
  8 10  1  0  0  0  0
  9 11  1  0  0  0  0
 10 12  2  0  0  0  0
 11 13  2  0  0  0  0
 11 14  1  0  0  0  0
 14 15  1  6  0  0  0
 14 16  1  0  0  0  0
 15 17  1  0  0  0  0
 16 18  1  0  0  0  0
 17 19  2  0  0  0  0
 17 20  1  0  0  0  0
 18 21  1  0  0  0  0
 18 22  1  0  0  0  0
 20 23  1  1  0  0  0
 20 24  1  0  0  0  0
 21 25  1  0  0  0  0
 22 26  1  0  0  0  0
 23 27  1  0  0  0  0
 24 28  1  0  0  0  0
 24 29  1  0  0  0  0
 25 30  1  0  0  0  0
 27 31  2  0  0  0  0
 27 32  1  0  0  0  0
 28 33  1  0  0  0  0
 32 34  1  0  0  0  0
 33 35  1  0  0  0  0
 33 36  1  0  0  0  0
 33 37  1  0  0  0  0
 34 38  1  0  0  0  0
 38 39  2  0  0  0  0
 38 40  1  0  0  0  0
 39 41  1  0  0  0  0
 40 42  2  0  0  0  0
 41 43  2  0  0  0  0
  5  6  1  0  0  0  0
 26 30  1  0  0  0  0
 42 43  1  0  0  0  0
M  END
>  <MolRegNo>
356578

>  <m>
=

>  <Value>
6.4

>  <Unit>
-

>  <Type>
log10 TCID50

>  <Ligand Efficiency>


>  <Binding Efficiency>


>  <Surface Efficiency>


>  <Assay Index>
265858

>  <Assay Category>


>  <Assay Organism>
SARS coronavirus

>  <Target ID>
100499

>  <Target Name>
SARS coronavirus

>  <Target Organism>
SARS coronavirus

>  <Target Description>
Target is a complete organism

>  <Sequence Accession>


>  <Reference>
J. Med. Chem. 49 (16), 4971-4980 (2006)

>  <Pubmed ID>
16884309

>  <DOI>
10.1021/jm0603926

>  <InChI-Key>
YFUZVOLEKQFVCQ-OKCRAPNYSA-N

>  <Molecular Formula>
C32H48N4O7

>  <Monoisotopic Mass>
600.352301

>  <Druglikeness>
-35.214

$$$$
Compound 635
Actelion Java MolfileCreator 1.0

 43 45  0  0  1  0  0  0  0  0999 V2000
    0.0000   -0.0000   -0.0000 O   0  0  0  0  0  0  0  0  0  0  0  0
    1.1077   -0.9886   -0.0000 C   0  0  0  0  0  0  0  0  0  0  0  0
    2.5608   -0.6551   -0.0000 N   0  0  0  0  0  0  0  0  0  0  0  0
    0.9528   -2.4655   -0.0000 C   0  0  0  0  0  0  0  0  0  0  0  0
    3.2992   -1.9414   -0.0000 C   0  0  0  0  0  0  0  0  0  0  0  0
    2.3106   -3.0610   -0.0000 C   0  0  0  0  0  0  0  0  0  0  0  0
   -0.3573   -3.2039   -0.0000 C   0  0  0  0  0  0  0  0  0  0  0  0
   -0.3692   -4.6927   -0.0000 C   0  0  0  0  0  0  0  0  0  0  0  0
   -1.6794   -5.4312   -0.0000 N   0  0  0  0  0  0  0  0  0  0  0  0
    0.9171   -5.4312   -0.0000 C   0  0  0  0  0  0  0  0  0  0  0  0
   -2.9895   -4.6689   -0.0000 C   0  0  0  0  0  0  0  0  0  0  0  0
    0.9052   -6.9200   -0.0000 O   0  0  0  0  0  0  0  0  0  0  0  0
   -3.0014   -3.1563   -0.0000 O   0  0  0  0  0  0  0  0  0  0  0  0
   -4.2997   -5.4074   -0.0000 C   0  0  0  0  0  0  0  0  0  0  0  0
   -5.6098   -4.6451   -0.0000 N   0  0  0  0  0  0  0  0  0  0  0  0
   -4.3116   -6.8962   -0.0000 C   0  0  0  0  0  0  0  0  0  0  0  0
   -6.9200   -5.3835   -0.0000 C   0  0  0  0  0  0  0  0  0  0  0  0
   -3.0253   -7.6346   -0.0000 C   0  0  0  0  0  0  0  0  0  0  0  0
   -6.9319   -6.8723   -0.0000 O   0  0  0  0  0  0  0  0  0  0  0  0
   -8.2301   -4.6213   -0.0000 C   0  0  0  0  0  0  0  0  0  0  0  0
   -3.0372   -9.1234   -0.0000 C   0  0  0  0  0  0  0  0  0  0  0  0
   -1.7389   -6.8723   -0.0000 C   0  0  0  0  0  0  0  0  0  0  0  0
   -9.5403   -5.3597   -0.0000 N   0  0  0  0  0  0  0  0  0  0  0  0
   -8.2420   -3.1086   -0.0000 C   0  0  0  0  0  0  0  0  0  0  0  0
   -1.7508   -9.8619   -0.0000 C   0  0  0  0  0  0  0  0  0  0  0  0
   -0.4526   -7.6108   -0.0000 C   0  0  0  0  0  0  0  0  0  0  0  0
  -10.8504   -4.5974   -0.0000 C   0  0  0  0  0  0  0  0  0  0  0  0
   -6.9557   -2.3464   -0.0000 O   0  0  0  0  0  0  0  0  0  0  0  0
   -9.5522   -2.3464   -0.0000 C   0  0  0  0  0  0  0  0  0  0  0  0
   -0.4645   -9.0996   -0.0000 C   0  0  0  0  0  0  0  0  0  0  0  0
  -10.8624   -3.0848   -0.0000 O   0  0  0  0  0  0  0  0  0  0  0  0
  -12.1606   -5.3359   -0.0000 O   0  0  0  0  0  0  0  0  0  0  0  0
   -6.9676   -0.8337   -0.0000 C   0  0  0  0  0  0  0  0  0  0  0  0
  -13.4707   -4.5736   -0.0000 C   0  0  0  0  0  0  0  0  0  0  0  0
   -6.9914    0.6789   -0.0000 C   0  0  0  0  0  0  0  0  0  0  0  0
   -5.4788   -0.8099   -0.0000 C   0  0  0  0  0  0  0  0  0  0  0  0
   -8.4803   -0.8337   -0.0000 C   0  0  0  0  0  0  0  0  0  0  0  0
  -14.7809   -5.3121   -0.0000 C   0  0  0  0  0  0  0  0  0  0  0  0
  -16.0911   -4.5498   -0.0000 C   0  0  0  0  0  0  0  0  0  0  0  0
  -14.7928   -6.8128   -0.0000 C   0  0  0  0  0  0  0  0  0  0  0  0
  -17.4012   -5.2883   -0.0000 C   0  0  0  0  0  0  0  0  0  0  0  0
  -16.1149   -7.5512   -0.0000 C   0  0  0  0  0  0  0  0  0  0  0  0
  -17.4131   -6.7890   -0.0000 C   0  0  0  0  0  0  0  0  0  0  0  0
  1  2  2  0  0  0  0
  2  3  1  0  0  0  0
  2  4  1  0  0  0  0
  3  5  1  0  0  0  0
  4  6  1  0  0  0  0
  4  7  1  1  0  0  0
  7  8  1  0  0  0  0
  8  9  1  1  0  0  0
  8 10  1  0  0  0  0
  9 11  1  0  0  0  0
 10 12  2  0  0  0  0
 11 13  2  0  0  0  0
 11 14  1  0  0  0  0
 14 15  1  6  0  0  0
 14 16  1  0  0  0  0
 15 17  1  0  0  0  0
 16 18  1  0  0  0  0
 17 19  2  0  0  0  0
 17 20  1  0  0  0  0
 18 21  1  0  0  0  0
 18 22  1  0  0  0  0
 20 23  1  1  0  0  0
 20 24  1  0  0  0  0
 21 25  1  0  0  0  0
 22 26  1  0  0  0  0
 23 27  1  0  0  0  0
 24 28  1  0  0  0  0
 24 29  1  0  0  0  0
 25 30  1  0  0  0  0
 27 31  2  0  0  0  0
 27 32  1  0  0  0  0
 28 33  1  0  0  0  0
 32 34  1  0  0  0  0
 33 35  1  0  0  0  0
 33 36  1  0  0  0  0
 33 37  1  0  0  0  0
 34 38  1  0  0  0  0
 38 39  2  0  0  0  0
 38 40  1  0  0  0  0
 39 41  1  0  0  0  0
 40 42  2  0  0  0  0
 41 43  2  0  0  0  0
  5  6  1  0  0  0  0
 26 30  1  0  0  0  0
 42 43  1  0  0  0  0
M  END
>  <MolRegNo>
356578

>  <m>
=

>  <Value>
6

>  <Unit>
-

>  <Type>
log10 TCID50

>  <Ligand Efficiency>


>  <Binding Efficiency>


>  <Surface Efficiency>


>  <Assay Index>
265859

>  <Assay Category>


>  <Assay Organism>
SARS coronavirus

>  <Target ID>
100499

>  <Target Name>
SARS coronavirus

>  <Target Organism>
SARS coronavirus

>  <Target Description>
Target is a complete organism

>  <Sequence Accession>


>  <Reference>
J. Med. Chem. 49 (16), 4971-4980 (2006)

>  <Pubmed ID>
16884309

>  <DOI>
10.1021/jm0603926

>  <InChI-Key>
YFUZVOLEKQFVCQ-OKCRAPNYSA-N

>  <Molecular Formula>
C32H48N4O7

>  <Monoisotopic Mass>
600.352301

>  <Druglikeness>
-35.214

$$$$
Compound 636
Actelion Java MolfileCreator 1.0

 43 45  0  0  1  0  0  0  0  0999 V2000
    0.0000   -0.0000   -0.0000 O   0  0  0  0  0  0  0  0  0  0  0  0
    1.1077   -0.9886   -0.0000 C   0  0  0  0  0  0  0  0  0  0  0  0
    2.5608   -0.6551   -0.0000 N   0  0  0  0  0  0  0  0  0  0  0  0
    0.9528   -2.4655   -0.0000 C   0  0  0  0  0  0  0  0  0  0  0  0
    3.2992   -1.9414   -0.0000 C   0  0  0  0  0  0  0  0  0  0  0  0
    2.3106   -3.0610   -0.0000 C   0  0  0  0  0  0  0  0  0  0  0  0
   -0.3573   -3.2039   -0.0000 C   0  0  0  0  0  0  0  0  0  0  0  0
   -0.3692   -4.6927   -0.0000 C   0  0  0  0  0  0  0  0  0  0  0  0
   -1.6794   -5.4312   -0.0000 N   0  0  0  0  0  0  0  0  0  0  0  0
    0.9171   -5.4312   -0.0000 C   0  0  0  0  0  0  0  0  0  0  0  0
   -2.9895   -4.6689   -0.0000 C   0  0  0  0  0  0  0  0  0  0  0  0
    0.9052   -6.9200   -0.0000 O   0  0  0  0  0  0  0  0  0  0  0  0
   -3.0014   -3.1563   -0.0000 O   0  0  0  0  0  0  0  0  0  0  0  0
   -4.2997   -5.4074   -0.0000 C   0  0  0  0  0  0  0  0  0  0  0  0
   -5.6098   -4.6451   -0.0000 N   0  0  0  0  0  0  0  0  0  0  0  0
   -4.3116   -6.8962   -0.0000 C   0  0  0  0  0  0  0  0  0  0  0  0
   -6.9200   -5.3835   -0.0000 C   0  0  0  0  0  0  0  0  0  0  0  0
   -3.0253   -7.6346   -0.0000 C   0  0  0  0  0  0  0  0  0  0  0  0
   -6.9319   -6.8723   -0.0000 O   0  0  0  0  0  0  0  0  0  0  0  0
   -8.2301   -4.6213   -0.0000 C   0  0  0  0  0  0  0  0  0  0  0  0
   -3.0372   -9.1234   -0.0000 C   0  0  0  0  0  0  0  0  0  0  0  0
   -1.7389   -6.8723   -0.0000 C   0  0  0  0  0  0  0  0  0  0  0  0
   -9.5403   -5.3597   -0.0000 N   0  0  0  0  0  0  0  0  0  0  0  0
   -8.2420   -3.1086   -0.0000 C   0  0  0  0  0  0  0  0  0  0  0  0
   -1.7508   -9.8619   -0.0000 C   0  0  0  0  0  0  0  0  0  0  0  0
   -0.4526   -7.6108   -0.0000 C   0  0  0  0  0  0  0  0  0  0  0  0
  -10.8504   -4.5974   -0.0000 C   0  0  0  0  0  0  0  0  0  0  0  0
   -6.9557   -2.3464   -0.0000 O   0  0  0  0  0  0  0  0  0  0  0  0
   -9.5522   -2.3464   -0.0000 C   0  0  0  0  0  0  0  0  0  0  0  0
   -0.4645   -9.0996   -0.0000 C   0  0  0  0  0  0  0  0  0  0  0  0
  -10.8624   -3.0848   -0.0000 O   0  0  0  0  0  0  0  0  0  0  0  0
  -12.1606   -5.3359   -0.0000 O   0  0  0  0  0  0  0  0  0  0  0  0
   -6.9676   -0.8337   -0.0000 C   0  0  0  0  0  0  0  0  0  0  0  0
  -13.4707   -4.5736   -0.0000 C   0  0  0  0  0  0  0  0  0  0  0  0
   -6.9914    0.6789   -0.0000 C   0  0  0  0  0  0  0  0  0  0  0  0
   -5.4788   -0.8099   -0.0000 C   0  0  0  0  0  0  0  0  0  0  0  0
   -8.4803   -0.8337   -0.0000 C   0  0  0  0  0  0  0  0  0  0  0  0
  -14.7809   -5.3121   -0.0000 C   0  0  0  0  0  0  0  0  0  0  0  0
  -16.0911   -4.5498   -0.0000 C   0  0  0  0  0  0  0  0  0  0  0  0
  -14.7928   -6.8128   -0.0000 C   0  0  0  0  0  0  0  0  0  0  0  0
  -17.4012   -5.2883   -0.0000 C   0  0  0  0  0  0  0  0  0  0  0  0
  -16.1149   -7.5512   -0.0000 C   0  0  0  0  0  0  0  0  0  0  0  0
  -17.4131   -6.7890   -0.0000 C   0  0  0  0  0  0  0  0  0  0  0  0
  1  2  2  0  0  0  0
  2  3  1  0  0  0  0
  2  4  1  0  0  0  0
  3  5  1  0  0  0  0
  4  6  1  0  0  0  0
  4  7  1  1  0  0  0
  7  8  1  0  0  0  0
  8  9  1  1  0  0  0
  8 10  1  0  0  0  0
  9 11  1  0  0  0  0
 10 12  2  0  0  0  0
 11 13  2  0  0  0  0
 11 14  1  0  0  0  0
 14 15  1  6  0  0  0
 14 16  1  0  0  0  0
 15 17  1  0  0  0  0
 16 18  1  0  0  0  0
 17 19  2  0  0  0  0
 17 20  1  0  0  0  0
 18 21  1  0  0  0  0
 18 22  1  0  0  0  0
 20 23  1  1  0  0  0
 20 24  1  0  0  0  0
 21 25  1  0  0  0  0
 22 26  1  0  0  0  0
 23 27  1  0  0  0  0
 24 28  1  0  0  0  0
 24 29  1  0  0  0  0
 25 30  1  0  0  0  0
 27 31  2  0  0  0  0
 27 32  1  0  0  0  0
 28 33  1  0  0  0  0
 32 34  1  0  0  0  0
 33 35  1  0  0  0  0
 33 36  1  0  0  0  0
 33 37  1  0  0  0  0
 34 38  1  0  0  0  0
 38 39  2  0  0  0  0
 38 40  1  0  0  0  0
 39 41  1  0  0  0  0
 40 42  2  0  0  0  0
 41 43  2  0  0  0  0
  5  6  1  0  0  0  0
 26 30  1  0  0  0  0
 42 43  1  0  0  0  0
M  END
>  <MolRegNo>
356578

>  <m>
=

>  <Value>
5

>  <Unit>
-

>  <Type>
log10 TCID50

>  <Ligand Efficiency>


>  <Binding Efficiency>


>  <Surface Efficiency>


>  <Assay Index>
265860

>  <Assay Category>


>  <Assay Organism>
SARS coronavirus

>  <Target ID>
100499

>  <Target Name>
SARS coronavirus

>  <Target Organism>
SARS coronavirus

>  <Target Description>
Target is a complete organism

>  <Sequence Accession>


>  <Reference>
J. Med. Chem. 49 (16), 4971-4980 (2006)

>  <Pubmed ID>
16884309

>  <DOI>
10.1021/jm0603926

>  <InChI-Key>
YFUZVOLEKQFVCQ-OKCRAPNYSA-N

>  <Molecular Formula>
C32H48N4O7

>  <Monoisotopic Mass>
600.352301

>  <Druglikeness>
-35.214

$$$$
Compound 637
Actelion Java MolfileCreator 1.0

 43 45  0  0  1  0  0  0  0  0999 V2000
    0.0000   -0.0000   -0.0000 O   0  0  0  0  0  0  0  0  0  0  0  0
    1.1077   -0.9886   -0.0000 C   0  0  0  0  0  0  0  0  0  0  0  0
    2.5608   -0.6551   -0.0000 N   0  0  0  0  0  0  0  0  0  0  0  0
    0.9528   -2.4655   -0.0000 C   0  0  0  0  0  0  0  0  0  0  0  0
    3.2992   -1.9414   -0.0000 C   0  0  0  0  0  0  0  0  0  0  0  0
    2.3106   -3.0610   -0.0000 C   0  0  0  0  0  0  0  0  0  0  0  0
   -0.3573   -3.2039   -0.0000 C   0  0  0  0  0  0  0  0  0  0  0  0
   -0.3692   -4.6927   -0.0000 C   0  0  0  0  0  0  0  0  0  0  0  0
   -1.6794   -5.4312   -0.0000 N   0  0  0  0  0  0  0  0  0  0  0  0
    0.9171   -5.4312   -0.0000 C   0  0  0  0  0  0  0  0  0  0  0  0
   -2.9895   -4.6689   -0.0000 C   0  0  0  0  0  0  0  0  0  0  0  0
    0.9052   -6.9200   -0.0000 O   0  0  0  0  0  0  0  0  0  0  0  0
   -3.0014   -3.1563   -0.0000 O   0  0  0  0  0  0  0  0  0  0  0  0
   -4.2997   -5.4074   -0.0000 C   0  0  0  0  0  0  0  0  0  0  0  0
   -5.6098   -4.6451   -0.0000 N   0  0  0  0  0  0  0  0  0  0  0  0
   -4.3116   -6.8962   -0.0000 C   0  0  0  0  0  0  0  0  0  0  0  0
   -6.9200   -5.3835   -0.0000 C   0  0  0  0  0  0  0  0  0  0  0  0
   -3.0253   -7.6346   -0.0000 C   0  0  0  0  0  0  0  0  0  0  0  0
   -6.9319   -6.8723   -0.0000 O   0  0  0  0  0  0  0  0  0  0  0  0
   -8.2301   -4.6213   -0.0000 C   0  0  0  0  0  0  0  0  0  0  0  0
   -3.0372   -9.1234   -0.0000 C   0  0  0  0  0  0  0  0  0  0  0  0
   -1.7389   -6.8723   -0.0000 C   0  0  0  0  0  0  0  0  0  0  0  0
   -9.5403   -5.3597   -0.0000 N   0  0  0  0  0  0  0  0  0  0  0  0
   -8.2420   -3.1086   -0.0000 C   0  0  0  0  0  0  0  0  0  0  0  0
   -1.7508   -9.8619   -0.0000 C   0  0  0  0  0  0  0  0  0  0  0  0
   -0.4526   -7.6108   -0.0000 C   0  0  0  0  0  0  0  0  0  0  0  0
  -10.8504   -4.5974   -0.0000 C   0  0  0  0  0  0  0  0  0  0  0  0
   -6.9557   -2.3464   -0.0000 O   0  0  0  0  0  0  0  0  0  0  0  0
   -9.5522   -2.3464   -0.0000 C   0  0  0  0  0  0  0  0  0  0  0  0
   -0.4645   -9.0996   -0.0000 C   0  0  0  0  0  0  0  0  0  0  0  0
  -10.8624   -3.0848   -0.0000 O   0  0  0  0  0  0  0  0  0  0  0  0
  -12.1606   -5.3359   -0.0000 O   0  0  0  0  0  0  0  0  0  0  0  0
   -6.9676   -0.8337   -0.0000 C   0  0  0  0  0  0  0  0  0  0  0  0
  -13.4707   -4.5736   -0.0000 C   0  0  0  0  0  0  0  0  0  0  0  0
   -6.9914    0.6789   -0.0000 C   0  0  0  0  0  0  0  0  0  0  0  0
   -5.4788   -0.8099   -0.0000 C   0  0  0  0  0  0  0  0  0  0  0  0
   -8.4803   -0.8337   -0.0000 C   0  0  0  0  0  0  0  0  0  0  0  0
  -14.7809   -5.3121   -0.0000 C   0  0  0  0  0  0  0  0  0  0  0  0
  -16.0911   -4.5498   -0.0000 C   0  0  0  0  0  0  0  0  0  0  0  0
  -14.7928   -6.8128   -0.0000 C   0  0  0  0  0  0  0  0  0  0  0  0
  -17.4012   -5.2883   -0.0000 C   0  0  0  0  0  0  0  0  0  0  0  0
  -16.1149   -7.5512   -0.0000 C   0  0  0  0  0  0  0  0  0  0  0  0
  -17.4131   -6.7890   -0.0000 C   0  0  0  0  0  0  0  0  0  0  0  0
  1  2  2  0  0  0  0
  2  3  1  0  0  0  0
  2  4  1  0  0  0  0
  3  5  1  0  0  0  0
  4  6  1  0  0  0  0
  4  7  1  1  0  0  0
  7  8  1  0  0  0  0
  8  9  1  1  0  0  0
  8 10  1  0  0  0  0
  9 11  1  0  0  0  0
 10 12  2  0  0  0  0
 11 13  2  0  0  0  0
 11 14  1  0  0  0  0
 14 15  1  6  0  0  0
 14 16  1  0  0  0  0
 15 17  1  0  0  0  0
 16 18  1  0  0  0  0
 17 19  2  0  0  0  0
 17 20  1  0  0  0  0
 18 21  1  0  0  0  0
 18 22  1  0  0  0  0
 20 23  1  1  0  0  0
 20 24  1  0  0  0  0
 21 25  1  0  0  0  0
 22 26  1  0  0  0  0
 23 27  1  0  0  0  0
 24 28  1  0  0  0  0
 24 29  1  0  0  0  0
 25 30  1  0  0  0  0
 27 31  2  0  0  0  0
 27 32  1  0  0  0  0
 28 33  1  0  0  0  0
 32 34  1  0  0  0  0
 33 35  1  0  0  0  0
 33 36  1  0  0  0  0
 33 37  1  0  0  0  0
 34 38  1  0  0  0  0
 38 39  2  0  0  0  0
 38 40  1  0  0  0  0
 39 41  1  0  0  0  0
 40 42  2  0  0  0  0
 41 43  2  0  0  0  0
  5  6  1  0  0  0  0
 26 30  1  0  0  0  0
 42 43  1  0  0  0  0
M  END
>  <MolRegNo>
356578

>  <m>
=

>  <Value>
2

>  <Unit>
-

>  <Type>
log10 TCID50

>  <Ligand Efficiency>


>  <Binding Efficiency>


>  <Surface Efficiency>


>  <Assay Index>
265862

>  <Assay Category>


>  <Assay Organism>
SARS coronavirus

>  <Target ID>
100499

>  <Target Name>
SARS coronavirus

>  <Target Organism>
SARS coronavirus

>  <Target Description>
Target is a complete organism

>  <Sequence Accession>


>  <Reference>
J. Med. Chem. 49 (16), 4971-4980 (2006)

>  <Pubmed ID>
16884309

>  <DOI>
10.1021/jm0603926

>  <InChI-Key>
YFUZVOLEKQFVCQ-OKCRAPNYSA-N

>  <Molecular Formula>
C32H48N4O7

>  <Monoisotopic Mass>
600.352301

>  <Druglikeness>
-35.214

$$$$
Compound 638
Actelion Java MolfileCreator 1.0

 43 45  0  0  1  0  0  0  0  0999 V2000
    0.0000   -0.0000   -0.0000 O   0  0  0  0  0  0  0  0  0  0  0  0
    1.1077   -0.9886   -0.0000 C   0  0  0  0  0  0  0  0  0  0  0  0
    2.5608   -0.6551   -0.0000 N   0  0  0  0  0  0  0  0  0  0  0  0
    0.9528   -2.4655   -0.0000 C   0  0  0  0  0  0  0  0  0  0  0  0
    3.2992   -1.9414   -0.0000 C   0  0  0  0  0  0  0  0  0  0  0  0
    2.3106   -3.0610   -0.0000 C   0  0  0  0  0  0  0  0  0  0  0  0
   -0.3573   -3.2039   -0.0000 C   0  0  0  0  0  0  0  0  0  0  0  0
   -0.3692   -4.6927   -0.0000 C   0  0  0  0  0  0  0  0  0  0  0  0
   -1.6794   -5.4312   -0.0000 N   0  0  0  0  0  0  0  0  0  0  0  0
    0.9171   -5.4312   -0.0000 C   0  0  0  0  0  0  0  0  0  0  0  0
   -2.9895   -4.6689   -0.0000 C   0  0  0  0  0  0  0  0  0  0  0  0
    0.9052   -6.9200   -0.0000 O   0  0  0  0  0  0  0  0  0  0  0  0
   -3.0014   -3.1563   -0.0000 O   0  0  0  0  0  0  0  0  0  0  0  0
   -4.2997   -5.4074   -0.0000 C   0  0  0  0  0  0  0  0  0  0  0  0
   -5.6098   -4.6451   -0.0000 N   0  0  0  0  0  0  0  0  0  0  0  0
   -4.3116   -6.8962   -0.0000 C   0  0  0  0  0  0  0  0  0  0  0  0
   -6.9200   -5.3835   -0.0000 C   0  0  0  0  0  0  0  0  0  0  0  0
   -3.0253   -7.6346   -0.0000 C   0  0  0  0  0  0  0  0  0  0  0  0
   -6.9319   -6.8723   -0.0000 O   0  0  0  0  0  0  0  0  0  0  0  0
   -8.2301   -4.6213   -0.0000 C   0  0  0  0  0  0  0  0  0  0  0  0
   -3.0372   -9.1234   -0.0000 C   0  0  0  0  0  0  0  0  0  0  0  0
   -1.7389   -6.8723   -0.0000 C   0  0  0  0  0  0  0  0  0  0  0  0
   -9.5403   -5.3597   -0.0000 N   0  0  0  0  0  0  0  0  0  0  0  0
   -8.2420   -3.1086   -0.0000 C   0  0  0  0  0  0  0  0  0  0  0  0
   -1.7508   -9.8619   -0.0000 C   0  0  0  0  0  0  0  0  0  0  0  0
   -0.4526   -7.6108   -0.0000 C   0  0  0  0  0  0  0  0  0  0  0  0
  -10.8504   -4.5974   -0.0000 C   0  0  0  0  0  0  0  0  0  0  0  0
   -6.9557   -2.3464   -0.0000 O   0  0  0  0  0  0  0  0  0  0  0  0
   -9.5522   -2.3464   -0.0000 C   0  0  0  0  0  0  0  0  0  0  0  0
   -0.4645   -9.0996   -0.0000 C   0  0  0  0  0  0  0  0  0  0  0  0
  -10.8624   -3.0848   -0.0000 O   0  0  0  0  0  0  0  0  0  0  0  0
  -12.1606   -5.3359   -0.0000 O   0  0  0  0  0  0  0  0  0  0  0  0
   -6.9676   -0.8337   -0.0000 C   0  0  0  0  0  0  0  0  0  0  0  0
  -13.4707   -4.5736   -0.0000 C   0  0  0  0  0  0  0  0  0  0  0  0
   -6.9914    0.6789   -0.0000 C   0  0  0  0  0  0  0  0  0  0  0  0
   -5.4788   -0.8099   -0.0000 C   0  0  0  0  0  0  0  0  0  0  0  0
   -8.4803   -0.8337   -0.0000 C   0  0  0  0  0  0  0  0  0  0  0  0
  -14.7809   -5.3121   -0.0000 C   0  0  0  0  0  0  0  0  0  0  0  0
  -16.0911   -4.5498   -0.0000 C   0  0  0  0  0  0  0  0  0  0  0  0
  -14.7928   -6.8128   -0.0000 C   0  0  0  0  0  0  0  0  0  0  0  0
  -17.4012   -5.2883   -0.0000 C   0  0  0  0  0  0  0  0  0  0  0  0
  -16.1149   -7.5512   -0.0000 C   0  0  0  0  0  0  0  0  0  0  0  0
  -17.4131   -6.7890   -0.0000 C   0  0  0  0  0  0  0  0  0  0  0  0
  1  2  2  0  0  0  0
  2  3  1  0  0  0  0
  2  4  1  0  0  0  0
  3  5  1  0  0  0  0
  4  6  1  0  0  0  0
  4  7  1  1  0  0  0
  7  8  1  0  0  0  0
  8  9  1  1  0  0  0
  8 10  1  0  0  0  0
  9 11  1  0  0  0  0
 10 12  2  0  0  0  0
 11 13  2  0  0  0  0
 11 14  1  0  0  0  0
 14 15  1  6  0  0  0
 14 16  1  0  0  0  0
 15 17  1  0  0  0  0
 16 18  1  0  0  0  0
 17 19  2  0  0  0  0
 17 20  1  0  0  0  0
 18 21  1  0  0  0  0
 18 22  1  0  0  0  0
 20 23  1  1  0  0  0
 20 24  1  0  0  0  0
 21 25  1  0  0  0  0
 22 26  1  0  0  0  0
 23 27  1  0  0  0  0
 24 28  1  0  0  0  0
 24 29  1  0  0  0  0
 25 30  1  0  0  0  0
 27 31  2  0  0  0  0
 27 32  1  0  0  0  0
 28 33  1  0  0  0  0
 32 34  1  0  0  0  0
 33 35  1  0  0  0  0
 33 36  1  0  0  0  0
 33 37  1  0  0  0  0
 34 38  1  0  0  0  0
 38 39  2  0  0  0  0
 38 40  1  0  0  0  0
 39 41  1  0  0  0  0
 40 42  2  0  0  0  0
 41 43  2  0  0  0  0
  5  6  1  0  0  0  0
 26 30  1  0  0  0  0
 42 43  1  0  0  0  0
M  END
>  <MolRegNo>
356578

>  <m>
=

>  <Value>
2

>  <Unit>
-

>  <Type>
log10 TCID50

>  <Ligand Efficiency>


>  <Binding Efficiency>


>  <Surface Efficiency>


>  <Assay Index>
265861

>  <Assay Category>


>  <Assay Organism>
SARS coronavirus

>  <Target ID>
100499

>  <Target Name>
SARS coronavirus

>  <Target Organism>
SARS coronavirus

>  <Target Description>
Target is a complete organism

>  <Sequence Accession>


>  <Reference>
J. Med. Chem. 49 (16), 4971-4980 (2006)

>  <Pubmed ID>
16884309

>  <DOI>
10.1021/jm0603926

>  <InChI-Key>
YFUZVOLEKQFVCQ-OKCRAPNYSA-N

>  <Molecular Formula>
C32H48N4O7

>  <Monoisotopic Mass>
600.352301

>  <Druglikeness>
-35.214

$$$$
Compound 639
Actelion Java MolfileCreator 1.0

 18 19  0  0  0  0  0  0  0  0999 V2000
    0.0000   -0.0000   -0.0000 O   0  0  0  0  0  0  0  0  0  0  0  0
   -1.3131   -0.7334   -0.0000 C   0  0  0  0  0  0  0  0  0  0  0  0
   -2.6261    0.0355   -0.0000 O   0  0  0  0  0  0  0  0  0  0  0  0
   -1.3249   -2.2239   -0.0000 C   0  0  0  0  0  0  0  0  0  0  0  0
   -0.0355   -2.9692   -0.0000 C   0  0  0  0  0  0  0  0  0  0  0  0
   -2.6380   -2.9574   -0.0000 C   0  0  0  0  0  0  0  0  0  0  0  0
   -0.0591   -4.4597   -0.0000 C   0  0  0  0  0  0  0  0  0  0  0  0
   -2.6616   -4.4479   -0.0000 C   0  0  0  0  0  0  0  0  0  0  0  0
   -3.9510   -2.1884   -0.0000 C   0  0  0  0  0  0  0  0  0  0  0  0
   -1.3722   -5.1931   -0.0000 C   0  0  0  0  0  0  0  0  0  0  0  0
   -3.9629   -5.1813   -0.0000 C   0  0  0  0  0  0  0  0  0  0  0  0
   -5.2641   -2.9337   -0.0000 C   0  0  0  0  0  0  0  0  0  0  0  0
   -1.3959   -6.6836   -0.0000 C   0  0  0  0  0  0  0  0  0  0  0  0
   -5.2759   -4.4242   -0.0000 C   0  0  0  0  0  0  0  0  0  0  0  0
   -0.1065   -7.4289   -0.0000 C   0  0  0  0  0  0  0  0  0  0  0  0
   -2.7089   -7.4171   -0.0000 C   0  0  0  0  0  0  0  0  0  0  0  0
   -6.5890   -5.1695   -0.0000 C   0  0  0  0  0  0  0  0  0  0  0  0
   -6.6008   -6.6600   -0.0000 O   0  0  0  0  0  0  0  0  0  0  0  0
  1  2  2  0  0  0  0
  2  3  1  0  0  0  0
  2  4  1  0  0  0  0
  4  5  2  0  0  0  0
  4  6  1  0  0  0  0
  5  7  1  0  0  0  0
  6  8  1  0  0  0  0
  6  9  1  6  0  0  0
  7 10  1  0  0  0  0
  8 11  1  6  0  0  0
  9 12  1  0  0  0  0
 10 13  1  1  0  0  0
 11 14  2  0  0  0  0
 13 15  1  0  0  0  0
 13 16  1  0  0  0  0
 14 17  1  0  0  0  0
 17 18  1  0  0  0  0
  8 10  1  0  0  0  0
 12 14  1  0  0  0  0
M  END
>  <MolRegNo>
614979

>  <m>


>  <Value>
0

>  <Unit>


>  <Type>
Activity

>  <Ligand Efficiency>


>  <Binding Efficiency>


>  <Surface Efficiency>


>  <Assay Index>
461176

>  <Assay Category>


>  <Assay Organism>
SARS coronavirus

>  <Target ID>
100499

>  <Target Name>
SARS coronavirus

>  <Target Organism>
SARS coronavirus

>  <Target Description>
Target is a complete organism

>  <Sequence Accession>


>  <Reference>
J. Nat. Prod. 73 (3), 476-478 (2010)

>  <Pubmed ID>
20052971

>  <DOI>
10.1021/np900608d

>  <InChI-Key>
YHQBOWLIXXWZPY-YRGRVCCFSA-N

>  <Molecular Formula>
C15H22O3

>  <Monoisotopic Mass>
250.156895

>  <Druglikeness>
-5.2949

$$$$
Compound 640
Actelion Java MolfileCreator 1.0

 34 38  0  0  0  0  0  0  0  0999 V2000
    0.0000   -0.0000   -0.0000 Cl  0  0  0  0  0  0  0  0  0  0  0  0
   -0.0121   -1.2214   -0.0000 C   0  0  0  0  0  0  0  0  0  0  0  0
   -1.3544   -1.9712   -0.0000 C   0  0  0  0  0  0  0  0  0  0  0  0
    1.3061   -1.9712   -0.0000 C   0  0  0  0  0  0  0  0  0  0  0  0
   -1.3665   -3.4949   -0.0000 C   0  0  0  0  0  0  0  0  0  0  0  0
    1.2940   -3.4949   -0.0000 C   0  0  0  0  0  0  0  0  0  0  0  0
   -0.0484   -4.2447   -0.0000 C   0  0  0  0  0  0  0  0  0  0  0  0
   -2.7089   -4.2447   -0.0000 C   0  0  0  0  0  0  0  0  0  0  0  0
   -0.0605   -5.7685   -0.0000 C   0  0  0  0  0  0  0  0  0  0  0  0
   -4.0996   -3.6038   -0.0000 O   0  0  0  0  0  0  0  0  0  0  0  0
   -2.8540   -5.7443   -0.0000 C   0  0  0  0  0  0  0  0  0  0  0  0
    0.9916   -6.3731   -0.0000 O   0  0  0  0  0  0  0  0  0  0  0  0
   -1.1368   -6.3731   -0.0000 O   0  0  0  0  0  0  0  0  0  0  0  0
   -5.1396   -4.7284   -0.0000 C   0  0  0  0  0  0  0  0  0  0  0  0
   -4.3656   -6.0587   -0.0000 C   0  0  0  0  0  0  0  0  0  0  0  0
   -6.6755   -4.5591   -0.0000 C   0  0  0  0  0  0  0  0  0  0  0  0
   -7.5824   -5.7926   -0.0000 C   0  0  0  0  0  0  0  0  0  0  0  0
   -7.1108   -7.2196   -0.0000 C   0  0  0  0  0  0  0  0  0  0  0  0
   -9.1183   -5.7685   -0.0000 C   0  0  0  0  0  0  0  0  0  0  0  0
   -5.9499   -7.5824   -0.0000 O   0  0  0  0  0  0  0  0  0  0  0  0
   -8.3685   -8.1145   -0.0000 N   0  0  0  0  0  0  0  0  0  0  0  0
   -9.6020   -7.2196   -0.0000 N   0  0  0  0  0  0  0  0  0  0  0  0
  -10.0253   -4.5108   -0.0000 C   0  0  0  0  0  0  0  0  0  0  0  0
   -8.3806   -9.6383   -0.0000 C   0  0  0  0  0  0  0  0  0  0  0  0
   -9.5174   -3.0596   -0.0000 C   0  0  0  0  0  0  0  0  0  0  0  0
  -11.5490   -4.7768   -0.0000 C   0  0  0  0  0  0  0  0  0  0  0  0
   -7.1229  -10.4848   -0.0000 C   0  0  0  0  0  0  0  0  0  0  0  0
   -9.7834  -10.2913   -0.0000 C   0  0  0  0  0  0  0  0  0  0  0  0
  -10.5211   -1.8744   -0.0000 C   0  0  0  0  0  0  0  0  0  0  0  0
  -12.5527   -3.5917   -0.0000 C   0  0  0  0  0  0  0  0  0  0  0  0
   -7.2438  -12.0086   -0.0000 C   0  0  0  0  0  0  0  0  0  0  0  0
   -9.9043  -11.8151   -0.0000 C   0  0  0  0  0  0  0  0  0  0  0  0
  -12.0448   -2.1405   -0.0000 C   0  0  0  0  0  0  0  0  0  0  0  0
   -8.6346  -12.6616   -0.0000 C   0  0  0  0  0  0  0  0  0  0  0  0
  1  2  1  0  0  0  0
  2  3  2  0  0  0  0
  2  4  1  0  0  0  0
  3  5  1  0  0  0  0
  4  6  2  0  0  0  0
  5  7  2  0  0  0  0
  5  8  1  0  0  0  0
  7  9  1  0  0  0  0
  8 10  1  0  0  0  0
  8 11  2  0  0  0  0
  9 12  2  0  0  0  0
  9 13  1  0  0  0  0
 10 14  1  0  0  0  0
 11 15  1  0  0  0  0
 14 16  1  0  0  0  0
 16 17  2  0  0  0  0
 17 18  1  0  0  0  0
 17 19  1  0  0  0  0
 18 20  2  0  0  0  0
 18 21  1  0  0  0  0
 19 22  2  0  0  0  0
 19 23  1  0  0  0  0
 21 24  1  0  0  0  0
 23 25  2  0  0  0  0
 23 26  1  0  0  0  0
 24 27  2  0  0  0  0
 24 28  1  0  0  0  0
 25 29  1  0  0  0  0
 26 30  2  0  0  0  0
 27 31  1  0  0  0  0
 28 32  2  0  0  0  0
 29 33  2  0  0  0  0
 31 34  2  0  0  0  0
  6  7  1  0  0  0  0
 14 15  2  0  0  0  0
 21 22  1  0  0  0  0
 30 33  1  0  0  0  0
 32 34  1  0  0  0  0
M  END
>  <MolRegNo>
2087690

>  <m>
=

>  <Value>
16400

>  <Unit>
nM

>  <Type>
IC50

>  <Ligand Efficiency>
0.19

>  <Binding Efficiency>
10.21

>  <Surface Efficiency>
5.76

>  <Assay Index>
1017144

>  <Assay Category>


>  <Assay Organism>
SARS coronavirus

>  <Target ID>
101075

>  <Target Name>
Replicase polyprotein 1ab

>  <Target Organism>
SARS coronavirus

>  <Target Description>
Target is a single protein chain

>  <Sequence Accession>
P0C6X7

>  <Reference>
Bioorg. Med. Chem. 24 (13), 3035-3042 (2016)

>  <Pubmed ID>
27240464

>  <DOI>
10.1016/j.bmc.2016.05.013

>  <InChI-Key>
YIPRRRUTHXSMOT-UHFFFAOYSA-N

>  <Molecular Formula>
C27H17N2O4Cl

>  <Monoisotopic Mass>
468.087685

>  <Druglikeness>
5.0217

$$$$
Compound 641
Actelion Java MolfileCreator 1.0

 19 21  0  0  1  0  0  0  0  0999 V2000
    0.0000   -0.0000   -0.0000 O   0  0  0  0  0  0  0  0  0  0  0  0
   -0.4740    1.4338   -0.0000 C   0  0  0  0  0  0  0  0  0  0  0  0
   -1.9077    1.9077   -0.0000 C   0  0  0  0  0  0  0  0  0  0  0  0
    0.3910    2.6543   -0.0000 C   0  0  0  0  0  0  0  0  0  0  0  0
   -1.9196    3.4126   -0.0000 C   0  0  0  0  0  0  0  0  0  0  0  0
   -3.1282    1.0427   -0.0000 C   0  0  0  0  0  0  0  0  0  0  0  0
    1.8722    2.6780   -0.0000 O   0  0  0  0  0  0  0  0  0  0  0  0
   -0.4977    3.8747   -0.0000 C   0  0  0  0  0  0  0  0  0  0  0  0
   -4.5028    1.6589   -0.0000 O   0  0  0  0  0  0  0  0  0  0  0  0
   -0.0474    5.3085   -0.0000 C   0  0  0  0  0  0  0  0  0  0  0  0
    1.3627    5.7825   -0.0000 C   0  0  0  0  0  0  0  0  0  0  0  0
   -0.9479    6.5290   -0.0000 C   0  0  0  0  0  0  0  0  0  0  0  0
    2.6424    5.0478   -0.0000 N   0  0  0  0  0  0  0  0  0  0  0  0
    1.3508    7.2874   -0.0000 C   0  0  0  0  0  0  0  0  0  0  0  0
   -0.0829    7.7613   -0.0000 N   0  0  0  0  0  0  0  0  0  0  0  0
    3.9340    5.8062   -0.0000 C   0  0  0  0  0  0  0  0  0  0  0  0
    2.6306    8.0457   -0.0000 C   0  0  0  0  0  0  0  0  0  0  0  0
    3.9221    7.3229   -0.0000 N   0  0  0  0  0  0  0  0  0  0  0  0
    2.6187    9.5506   -0.0000 N   0  0  0  0  0  0  0  0  0  0  0  0
  2  1  1  6  0  0  0
  2  3  1  0  0  0  0
  2  4  1  0  0  0  0
  3  5  2  0  0  0  0
  3  6  1  0  0  0  0
  4  7  1  6  0  0  0
  4  8  1  0  0  0  0
  6  9  1  0  0  0  0
  8 10  1  1  0  0  0
 10 11  1  0  0  0  0
 10 12  2  0  0  0  0
 11 13  2  0  0  0  0
 11 14  1  0  0  0  0
 12 15  1  0  0  0  0
 13 16  1  0  0  0  0
 14 17  2  0  0  0  0
 16 18  2  0  0  0  0
 17 19  1  0  0  0  0
  5  8  1  0  0  0  0
 14 15  1  0  0  0  0
 17 18  1  0  0  0  0
M  END
>  <MolRegNo>
376352

>  <m>


>  <Value>
0

>  <Unit>


>  <Type>
EC50

>  <Ligand Efficiency>


>  <Binding Efficiency>


>  <Surface Efficiency>


>  <Assay Index>
281342

>  <Assay Category>


>  <Assay Organism>
SARS coronavirus

>  <Target ID>
100499

>  <Target Name>
SARS coronavirus

>  <Target Organism>
SARS coronavirus

>  <Target Description>
Target is a complete organism

>  <Sequence Accession>


>  <Reference>
Bioorg. Med. Chem. 15 (2), 839-846 (2007)

>  <Pubmed ID>
17085053

>  <DOI>
10.1016/j.bmc.2006.10.043

>  <InChI-Key>
YJKFBCOEVVOXCY-PFZYVWIYSA-N

>  <Molecular Formula>
C12H14N4O3

>  <Monoisotopic Mass>
262.106591

>  <Druglikeness>
0.29006

$$$$
Compound 642
Actelion Java MolfileCreator 1.0

 19 21  0  0  1  0  0  0  0  0999 V2000
    0.0000   -0.0000   -0.0000 O   0  0  0  0  0  0  0  0  0  0  0  0
   -0.4740    1.4338   -0.0000 C   0  0  0  0  0  0  0  0  0  0  0  0
   -1.9077    1.9077   -0.0000 C   0  0  0  0  0  0  0  0  0  0  0  0
    0.3910    2.6543   -0.0000 C   0  0  0  0  0  0  0  0  0  0  0  0
   -1.9196    3.4126   -0.0000 C   0  0  0  0  0  0  0  0  0  0  0  0
   -3.1282    1.0427   -0.0000 C   0  0  0  0  0  0  0  0  0  0  0  0
    1.8722    2.6780   -0.0000 O   0  0  0  0  0  0  0  0  0  0  0  0
   -0.4977    3.8747   -0.0000 C   0  0  0  0  0  0  0  0  0  0  0  0
   -4.5028    1.6589   -0.0000 O   0  0  0  0  0  0  0  0  0  0  0  0
   -0.0474    5.3085   -0.0000 C   0  0  0  0  0  0  0  0  0  0  0  0
    1.3627    5.7825   -0.0000 C   0  0  0  0  0  0  0  0  0  0  0  0
   -0.9479    6.5290   -0.0000 C   0  0  0  0  0  0  0  0  0  0  0  0
    2.6424    5.0478   -0.0000 N   0  0  0  0  0  0  0  0  0  0  0  0
    1.3508    7.2874   -0.0000 C   0  0  0  0  0  0  0  0  0  0  0  0
   -0.0829    7.7613   -0.0000 N   0  0  0  0  0  0  0  0  0  0  0  0
    3.9340    5.8062   -0.0000 C   0  0  0  0  0  0  0  0  0  0  0  0
    2.6306    8.0457   -0.0000 C   0  0  0  0  0  0  0  0  0  0  0  0
    3.9221    7.3229   -0.0000 N   0  0  0  0  0  0  0  0  0  0  0  0
    2.6187    9.5506   -0.0000 N   0  0  0  0  0  0  0  0  0  0  0  0
  2  1  1  6  0  0  0
  2  3  1  0  0  0  0
  2  4  1  0  0  0  0
  3  5  2  0  0  0  0
  3  6  1  0  0  0  0
  4  7  1  6  0  0  0
  4  8  1  0  0  0  0
  6  9  1  0  0  0  0
  8 10  1  1  0  0  0
 10 11  1  0  0  0  0
 10 12  2  0  0  0  0
 11 13  2  0  0  0  0
 11 14  1  0  0  0  0
 12 15  1  0  0  0  0
 13 16  1  0  0  0  0
 14 17  2  0  0  0  0
 16 18  2  0  0  0  0
 17 19  1  0  0  0  0
  5  8  1  0  0  0  0
 14 15  1  0  0  0  0
 17 18  1  0  0  0  0
M  END
>  <MolRegNo>
376352

>  <m>


>  <Value>
0

>  <Unit>


>  <Type>
IC50

>  <Ligand Efficiency>


>  <Binding Efficiency>


>  <Surface Efficiency>


>  <Assay Index>
281342

>  <Assay Category>


>  <Assay Organism>
SARS coronavirus

>  <Target ID>
100499

>  <Target Name>
SARS coronavirus

>  <Target Organism>
SARS coronavirus

>  <Target Description>
Target is a complete organism

>  <Sequence Accession>


>  <Reference>
Bioorg. Med. Chem. 15 (2), 839-846 (2007)

>  <Pubmed ID>
17085053

>  <DOI>
10.1016/j.bmc.2006.10.043

>  <InChI-Key>
YJKFBCOEVVOXCY-PFZYVWIYSA-N

>  <Molecular Formula>
C12H14N4O3

>  <Monoisotopic Mass>
262.106591

>  <Druglikeness>
0.29006

$$$$
Compound 643
Actelion Java MolfileCreator 1.0

 52 56  0  0  0  0  0  0  0  0999 V2000
    0.0000   -0.0000   -0.0000 O   0  0  0  0  0  0  0  0  0  0  0  0
   -0.0119    1.5155   -0.0000 C   0  0  0  0  0  0  0  0  0  0  0  0
   -1.3246    2.2792   -0.0000 O   0  0  0  0  0  0  0  0  0  0  0  0
    1.2768    2.2792   -0.0000 C   0  0  0  0  0  0  0  0  0  0  0  0
   -1.3365    3.7947   -0.0000 C   0  0  0  0  0  0  0  0  0  0  0  0
    2.5775    1.5394   -0.0000 C   0  0  0  0  0  0  0  0  0  0  0  0
   -0.0477    4.5584   -0.0000 C   0  0  0  0  0  0  0  0  0  0  0  0
   -2.6491    4.5584   -0.0000 C   0  0  0  0  0  0  0  0  0  0  0  0
    3.8663    2.3031   -0.0000 C   0  0  0  0  0  0  0  0  0  0  0  0
   -0.0597    6.0739   -0.0000 O   0  0  0  0  0  0  0  0  0  0  0  0
    1.2410    3.8186   -0.0000 O   0  0  0  0  0  0  0  0  0  0  0  0
   -3.9617    3.8186   -0.0000 C   0  0  0  0  0  0  0  0  0  0  0  0
    5.1670    1.5752   -0.0000 C   0  0  0  0  0  0  0  0  0  0  0  0
    3.8424    3.8186   -0.0000 C   0  0  0  0  0  0  0  0  0  0  0  0
   -3.9737    2.3150   -0.0000 C   0  0  0  0  0  0  0  0  0  0  0  0
   -5.2744    4.5823   -0.0000 C   0  0  0  0  0  0  0  0  0  0  0  0
    6.4438    2.3389   -0.0000 C   0  0  0  0  0  0  0  0  0  0  0  0
    5.4772    0.1313   -0.0000 C   0  0  0  0  0  0  0  0  0  0  0  0
    5.1192    4.5942   -0.0000 C   0  0  0  0  0  0  0  0  0  0  0  0
   -5.2982    1.5752   -0.0000 C   0  0  0  0  0  0  0  0  0  0  0  0
   -6.5870    3.8424   -0.0000 C   0  0  0  0  0  0  0  0  0  0  0  0
    7.5416    1.3484   -0.0000 O   0  0  0  0  0  0  0  0  0  0  0  0
    6.4319    3.8544   -0.0000 C   0  0  0  0  0  0  0  0  0  0  0  0
    6.9569   -0.0000   -0.0000 C   0  0  0  0  0  0  0  0  0  0  0  0
    4.7135   -1.1575   -0.0000 C   0  0  0  0  0  0  0  0  0  0  0  0
    5.0954    6.1097   -0.0000 O   0  0  0  0  0  0  0  0  0  0  0  0
   -5.3102    0.0835   -0.0000 O   0  0  0  0  0  0  0  0  0  0  0  0
   -6.6109    2.3389   -0.0000 C   0  0  0  0  0  0  0  0  0  0  0  0
    7.6968   -1.2888   -0.0000 C   0  0  0  0  0  0  0  0  0  0  0  0
    5.4534   -2.4463   -0.0000 O   0  0  0  0  0  0  0  0  0  0  0  0
    3.1980   -1.1456   -0.0000 O   0  0  0  0  0  0  0  0  0  0  0  0
   -7.9354    1.5990   -0.0000 O   0  0  0  0  0  0  0  0  0  0  0  0
    9.1884   -1.2649   -0.0000 C   0  0  0  0  0  0  0  0  0  0  0  0
    6.9331   -2.5775   -0.0000 C   0  0  0  0  0  0  0  0  0  0  0  0
    4.6897   -3.7350   -0.0000 C   0  0  0  0  0  0  0  0  0  0  0  0
    9.9282   -2.5537   -0.0000 C   0  0  0  0  0  0  0  0  0  0  0  0
    7.6729   -3.8663   -0.0000 C   0  0  0  0  0  0  0  0  0  0  0  0
    3.1742   -3.7231   -0.0000 C   0  0  0  0  0  0  0  0  0  0  0  0
    5.4295   -5.0238   -0.0000 C   0  0  0  0  0  0  0  0  0  0  0  0
   11.4199   -2.5417   -0.0000 O   0  0  0  0  0  0  0  0  0  0  0  0
    9.1645   -3.8544   -0.0000 C   0  0  0  0  0  0  0  0  0  0  0  0
    2.4105   -2.4105   -0.0000 O   0  0  0  0  0  0  0  0  0  0  0  0
    2.4105   -5.0119   -0.0000 O   0  0  0  0  0  0  0  0  0  0  0  0
    4.6658   -6.3125   -0.0000 C   0  0  0  0  0  0  0  0  0  0  0  0
    9.9044   -5.1431   -0.0000 O   0  0  0  0  0  0  0  0  0  0  0  0
    5.4056   -7.5894   -0.0000 C   0  0  0  0  0  0  0  0  0  0  0  0
    3.1503   -6.2887   -0.0000 C   0  0  0  0  0  0  0  0  0  0  0  0
    4.6419   -8.8781   -0.0000 C   0  0  0  0  0  0  0  0  0  0  0  0
    2.3866   -7.5774   -0.0000 C   0  0  0  0  0  0  0  0  0  0  0  0
    5.3818  -10.1669   -0.0000 O   0  0  0  0  0  0  0  0  0  0  0  0
    3.1145   -8.8662   -0.0000 C   0  0  0  0  0  0  0  0  0  0  0  0
    2.3508  -10.1550   -0.0000 O   0  0  0  0  0  0  0  0  0  0  0  0
  1  2  2  0  0  0  0
  2  3  1  0  0  0  0
  2  4  1  0  0  0  0
  5  3  1  6  0  0  0
  4  6  2  0  0  0  0
  5  7  1  0  0  0  0
  5  8  1  0  0  0  0
  6  9  1  0  0  0  0
  7 10  2  0  0  0  0
  7 11  1  0  0  0  0
  8 12  1  0  0  0  0
  9 13  2  0  0  0  0
  9 14  1  0  0  0  0
 12 15  2  0  0  0  0
 12 16  1  0  0  0  0
 13 17  1  0  0  0  0
 13 18  1  0  0  0  0
 14 19  2  0  0  0  0
 15 20  1  0  0  0  0
 16 21  2  0  0  0  0
 17 22  1  0  0  0  0
 17 23  2  0  0  0  0
 18 24  1  0  0  0  0
 18 25  1  1  0  0  0
 19 26  1  0  0  0  0
 20 27  1  0  0  0  0
 20 28  2  0  0  0  0
 24 29  1  6  0  0  0
 25 30  1  0  0  0  0
 25 31  1  0  0  0  0
 28 32  1  0  0  0  0
 29 33  2  0  0  0  0
 29 34  1  0  0  0  0
 35 30  1  6  0  0  0
 33 36  1  0  0  0  0
 34 37  2  0  0  0  0
 35 38  1  0  0  0  0
 35 39  1  0  0  0  0
 36 40  1  0  0  0  0
 36 41  2  0  0  0  0
 38 42  2  0  0  0  0
 38 43  1  0  0  0  0
 39 44  1  0  0  0  0
 41 45  1  0  0  0  0
 44 46  2  0  0  0  0
 44 47  1  0  0  0  0
 46 48  1  0  0  0  0
 47 49  2  0  0  0  0
 48 50  1  0  0  0  0
 48 51  2  0  0  0  0
 51 52  1  0  0  0  0
 19 23  1  0  0  0  0
 21 28  1  0  0  0  0
 22 24  1  0  0  0  0
 37 41  1  0  0  0  0
 49 51  1  0  0  0  0
M  END
>  <MolRegNo>
554317

>  <m>
=

>  <Value>
30

>  <Unit>
%

>  <Type>
Inhibition

>  <Ligand Efficiency>


>  <Binding Efficiency>


>  <Surface Efficiency>


>  <Assay Index>
678189

>  <Assay Category>


>  <Assay Organism>
SARS coronavirus

>  <Target ID>
20012

>  <Target Name>
SARS coronavirus 3C-like proteinase

>  <Target Organism>
SARS coronavirus

>  <Target Description>
Target is a single protein chain

>  <Sequence Accession>
P0C6U8

>  <Reference>
Bioorg. Med. Chem. 20 (19), 5928-5935 (2012)

>  <Pubmed ID>
22884354

>  <DOI>
10.1016/j.bmc.2012.07.038

>  <InChI-Key>
YLSNESYAOIRZEA-NZSWIJRASA-N

>  <Molecular Formula>
C36H32O16

>  <Monoisotopic Mass>
720.169040

>  <Druglikeness>
-3.5317

$$$$
Compound 644
Actelion Java MolfileCreator 1.0

 23 24  0  0  0  0  0  0  0  0999 V2000
    0.0000   -0.0000   -0.0000 Cl  0  0  0  0  0  0  0  0  0  0  0  0
   -0.0118   -1.4930   -0.0000 C   0  0  0  0  0  0  0  0  0  0  0  0
   -1.3271   -2.2276   -0.0000 C   0  0  0  0  0  0  0  0  0  0  0  0
    1.2797   -2.2276   -0.0000 C   0  0  0  0  0  0  0  0  0  0  0  0
   -1.3389   -3.7205   -0.0000 C   0  0  0  0  0  0  0  0  0  0  0  0
    1.2678   -3.7205   -0.0000 C   0  0  0  0  0  0  0  0  0  0  0  0
   -0.0474   -4.4552   -0.0000 C   0  0  0  0  0  0  0  0  0  0  0  0
   -0.0592   -5.9481   -0.0000 C   0  0  0  0  0  0  0  0  0  0  0  0
    1.2323   -6.6827   -0.0000 O   0  0  0  0  0  0  0  0  0  0  0  0
    1.2204   -8.1757   -0.0000 C   0  0  0  0  0  0  0  0  0  0  0  0
   -0.0948   -8.9103   -0.0000 C   0  0  0  0  0  0  0  0  0  0  0  0
    2.5120   -8.9103   -0.0000 C   0  0  0  0  0  0  0  0  0  0  0  0
   -1.4100   -8.1520   -0.0000 C   0  0  0  0  0  0  0  0  0  0  0  0
   -0.1066  -10.4033   -0.0000 C   0  0  0  0  0  0  0  0  0  0  0  0
    2.5001  -10.4033   -0.0000 C   0  0  0  0  0  0  0  0  0  0  0  0
   -1.4219   -6.6353   -0.0000 O   0  0  0  0  0  0  0  0  0  0  0  0
   -2.7252   -8.8866   -0.0000 C   0  0  0  0  0  0  0  0  0  0  0  0
    1.1849  -11.1379   -0.0000 C   0  0  0  0  0  0  0  0  0  0  0  0
   -4.0405   -8.1283   -0.0000 C   0  0  0  0  0  0  0  0  0  0  0  0
   -4.0523   -6.6117   -0.0000 O   0  0  0  0  0  0  0  0  0  0  0  0
   -5.3557   -8.8629   -0.0000 C   0  0  0  0  0  0  0  0  0  0  0  0
   -6.6709   -8.1046   -0.0000 O   0  0  0  0  0  0  0  0  0  0  0  0
   -5.3675  -10.3559   -0.0000 O   0  0  0  0  0  0  0  0  0  0  0  0
  1  2  1  0  0  0  0
  2  3  2  0  0  0  0
  2  4  1  0  0  0  0
  3  5  1  0  0  0  0
  4  6  2  0  0  0  0
  5  7  2  0  0  0  0
  7  8  1  0  0  0  0
  8  9  1  0  0  0  0
  9 10  1  0  0  0  0
 10 11  2  0  0  0  0
 10 12  1  0  0  0  0
 11 13  1  0  0  0  0
 11 14  1  0  0  0  0
 12 15  2  0  0  0  0
 13 16  2  0  0  0  0
 13 17  1  0  0  0  0
 14 18  2  0  0  0  0
 17 19  2  0  0  0  0
 19 20  1  0  0  0  0
 19 21  1  0  0  0  0
 21 22  2  0  0  0  0
 21 23  1  0  0  0  0
  6  7  1  0  0  0  0
 15 18  1  0  0  0  0
M  END
>  <MolRegNo>
478461

>  <m>
>

>  <Value>
50000

>  <Unit>
nM

>  <Type>
IC50

>  <Ligand Efficiency>


>  <Binding Efficiency>


>  <Surface Efficiency>


>  <Assay Index>
414789

>  <Assay Category>


>  <Assay Organism>
SARS coronavirus

>  <Target ID>
101075

>  <Target Name>
Replicase polyprotein 1ab

>  <Target Organism>
SARS coronavirus

>  <Target Description>
Target is a single protein chain

>  <Sequence Accession>
P0C6X7

>  <Reference>
Bioorg. Med. Chem. Lett. 19 (6), 1636-1638 (2009)

>  <Pubmed ID>
19233643

>  <DOI>
10.1016/j.bmcl.2009.02.010

>  <InChI-Key>
YNSCIWCSWTUTPD-UHFFFAOYSA-N

>  <Molecular Formula>
C17H13O5Cl

>  <Monoisotopic Mass>
332.045152

>  <Druglikeness>
1.01

$$$$
Compound 645
Actelion Java MolfileCreator 1.0

 23 24  0  0  0  0  0  0  0  0999 V2000
    0.0000   -0.0000   -0.0000 Cl  0  0  0  0  0  0  0  0  0  0  0  0
   -0.0118   -1.4930   -0.0000 C   0  0  0  0  0  0  0  0  0  0  0  0
   -1.3271   -2.2276   -0.0000 C   0  0  0  0  0  0  0  0  0  0  0  0
    1.2797   -2.2276   -0.0000 C   0  0  0  0  0  0  0  0  0  0  0  0
   -1.3389   -3.7205   -0.0000 C   0  0  0  0  0  0  0  0  0  0  0  0
    1.2678   -3.7205   -0.0000 C   0  0  0  0  0  0  0  0  0  0  0  0
   -0.0474   -4.4552   -0.0000 C   0  0  0  0  0  0  0  0  0  0  0  0
   -0.0592   -5.9481   -0.0000 C   0  0  0  0  0  0  0  0  0  0  0  0
    1.2323   -6.6827   -0.0000 O   0  0  0  0  0  0  0  0  0  0  0  0
    1.2204   -8.1757   -0.0000 C   0  0  0  0  0  0  0  0  0  0  0  0
   -0.0948   -8.9103   -0.0000 C   0  0  0  0  0  0  0  0  0  0  0  0
    2.5120   -8.9103   -0.0000 C   0  0  0  0  0  0  0  0  0  0  0  0
   -1.4100   -8.1520   -0.0000 C   0  0  0  0  0  0  0  0  0  0  0  0
   -0.1066  -10.4033   -0.0000 C   0  0  0  0  0  0  0  0  0  0  0  0
    2.5001  -10.4033   -0.0000 C   0  0  0  0  0  0  0  0  0  0  0  0
   -1.4219   -6.6353   -0.0000 O   0  0  0  0  0  0  0  0  0  0  0  0
   -2.7252   -8.8866   -0.0000 C   0  0  0  0  0  0  0  0  0  0  0  0
    1.1849  -11.1379   -0.0000 C   0  0  0  0  0  0  0  0  0  0  0  0
   -4.0405   -8.1283   -0.0000 C   0  0  0  0  0  0  0  0  0  0  0  0
   -4.0523   -6.6117   -0.0000 O   0  0  0  0  0  0  0  0  0  0  0  0
   -5.3557   -8.8629   -0.0000 C   0  0  0  0  0  0  0  0  0  0  0  0
   -6.6709   -8.1046   -0.0000 O   0  0  0  0  0  0  0  0  0  0  0  0
   -5.3675  -10.3559   -0.0000 O   0  0  0  0  0  0  0  0  0  0  0  0
  1  2  1  0  0  0  0
  2  3  2  0  0  0  0
  2  4  1  0  0  0  0
  3  5  1  0  0  0  0
  4  6  2  0  0  0  0
  5  7  2  0  0  0  0
  7  8  1  0  0  0  0
  8  9  1  0  0  0  0
  9 10  1  0  0  0  0
 10 11  2  0  0  0  0
 10 12  1  0  0  0  0
 11 13  1  0  0  0  0
 11 14  1  0  0  0  0
 12 15  2  0  0  0  0
 13 16  2  0  0  0  0
 13 17  1  0  0  0  0
 14 18  2  0  0  0  0
 17 19  2  0  0  0  0
 19 20  1  0  0  0  0
 19 21  1  0  0  0  0
 21 22  2  0  0  0  0
 21 23  1  0  0  0  0
  6  7  1  0  0  0  0
 15 18  1  0  0  0  0
M  END
>  <MolRegNo>
478461

>  <m>
=

>  <Value>
28700

>  <Unit>
nM

>  <Type>
IC50

>  <Ligand Efficiency>
0.27

>  <Binding Efficiency>
13.65

>  <Surface Efficiency>
5.42

>  <Assay Index>
414790

>  <Assay Category>


>  <Assay Organism>
SARS coronavirus

>  <Target ID>
101075

>  <Target Name>
Replicase polyprotein 1ab

>  <Target Organism>
SARS coronavirus

>  <Target Description>
Target is a single protein chain

>  <Sequence Accession>
P0C6X7

>  <Reference>
Bioorg. Med. Chem. Lett. 19 (6), 1636-1638 (2009)

>  <Pubmed ID>
19233643

>  <DOI>
10.1016/j.bmcl.2009.02.010

>  <InChI-Key>
YNSCIWCSWTUTPD-UHFFFAOYSA-N

>  <Molecular Formula>
C17H13O5Cl

>  <Monoisotopic Mass>
332.045152

>  <Druglikeness>
1.01

$$$$
Compound 646
Actelion Java MolfileCreator 1.0

 22 25  0  0  0  0  0  0  0  0999 V2000
    0.0000   -0.0000   -0.0000 S   0  0  0  0  0  0  0  0  0  0  0  0
    1.2989   -0.7439   -0.0000 C   0  0  0  0  0  0  0  0  0  0  0  0
   -1.1218   -0.9919   -0.0000 C   0  0  0  0  0  0  0  0  0  0  0  0
    0.9683   -2.1963   -0.0000 C   0  0  0  0  0  0  0  0  0  0  0  0
    2.6923   -0.2598   -0.0000 C   0  0  0  0  0  0  0  0  0  0  0  0
   -0.5196   -2.3380   -0.0000 C   0  0  0  0  0  0  0  0  0  0  0  0
   -2.5860   -0.6731   -0.0000 C   0  0  0  0  0  0  0  0  0  0  0  0
    2.0546   -3.1882   -0.0000 C   0  0  0  0  0  0  0  0  0  0  0  0
    3.7905   -1.2517   -0.0000 C   0  0  0  0  0  0  0  0  0  0  0  0
   -3.0702    0.7675   -0.0000 N   0  0  0  0  0  0  0  0  0  0  0  0
    3.4716   -2.7159   -0.0000 C   0  0  0  0  0  0  0  0  0  0  0  0
   -2.1963    1.9956   -0.0000 C   0  0  0  0  0  0  0  0  0  0  0  0
   -4.4990    1.2517   -0.0000 C   0  0  0  0  0  0  0  0  0  0  0  0
   -0.7085    2.0074   -0.0000 O   0  0  0  0  0  0  0  0  0  0  0  0
   -3.0938    3.2237   -0.0000 C   0  0  0  0  0  0  0  0  0  0  0  0
   -5.8215    0.4959   -0.0000 C   0  0  0  0  0  0  0  0  0  0  0  0
   -4.5108    2.7631   -0.0000 C   0  0  0  0  0  0  0  0  0  0  0  0
   -2.6332    4.6643   -0.0000 O   0  0  0  0  0  0  0  0  0  0  0  0
   -5.8215   -0.9919   -0.0000 N   0  0  0  0  0  0  0  0  0  0  0  0
   -7.1322    1.2517   -0.0000 C   0  0  0  0  0  0  0  0  0  0  0  0
   -5.8333    3.5189   -0.0000 C   0  0  0  0  0  0  0  0  0  0  0  0
   -7.1440    2.7631   -0.0000 C   0  0  0  0  0  0  0  0  0  0  0  0
  1  2  1  0  0  0  0
  1  3  1  0  0  0  0
  2  4  2  0  0  0  0
  2  5  1  0  0  0  0
  3  6  2  0  0  0  0
  3  7  1  0  0  0  0
  4  8  1  0  0  0  0
  5  9  2  0  0  0  0
  7 10  1  0  0  0  0
  8 11  2  0  0  0  0
 10 12  1  0  0  0  0
 10 13  1  0  0  0  0
 12 14  2  0  0  0  0
 12 15  1  0  0  0  0
 13 16  2  0  0  0  0
 13 17  1  0  0  0  0
 15 18  2  0  0  0  0
 16 19  1  0  0  0  0
 16 20  1  0  0  0  0
 17 21  2  0  0  0  0
 20 22  2  0  0  0  0
  4  6  1  0  0  0  0
  9 11  1  0  0  0  0
 15 17  1  0  0  0  0
 21 22  1  0  0  0  0
M  END
>  <MolRegNo>
316967

>  <m>
=

>  <Value>
31

>  <Unit>
%

>  <Type>
Inhibition

>  <Ligand Efficiency>


>  <Binding Efficiency>


>  <Surface Efficiency>


>  <Assay Index>
240686

>  <Assay Category>


>  <Assay Organism>
SARS coronavirus

>  <Target ID>
20012

>  <Target Name>
SARS coronavirus 3C-like proteinase

>  <Target Organism>
SARS coronavirus

>  <Target Description>
Target is a single protein chain

>  <Sequence Accession>
P0C6U8

>  <Reference>
Bioorg. Med. Chem. Lett. 15 (12), 3058-3062 (2005)

>  <Pubmed ID>
15896959

>  <DOI>
10.1016/j.bmcl.2005.04.027

>  <InChI-Key>
YOSPSKNTFQRWQP-UHFFFAOYSA-N

>  <Molecular Formula>
C17H12N2O2S

>  <Monoisotopic Mass>
308.061948

>  <Druglikeness>
1.2299

$$$$
Compound 647
Actelion Java MolfileCreator 1.0

 21 24  0  0  0  0  0  0  0  0999 V2000
    0.0000   -0.0000   -0.0000 O   0  0  0  0  0  0  0  0  0  0  0  0
   -0.0119   -1.4861   -0.0000 C   0  0  0  0  0  0  0  0  0  0  0  0
    1.2721   -2.2232   -0.0000 O   0  0  0  0  0  0  0  0  0  0  0  0
   -1.3316   -2.2232   -0.0000 C   0  0  0  0  0  0  0  0  0  0  0  0
    2.5680   -1.4623   -0.0000 N   0  0  0  0  0  0  0  0  0  0  0  0
   -2.6394   -1.4505   -0.0000 C   0  0  0  0  0  0  0  0  0  0  0  0
   -1.3435   -3.7094   -0.0000 C   0  0  0  0  0  0  0  0  0  0  0  0
    2.7107    0.0357   -0.0000 N   0  0  0  0  0  0  0  0  0  0  0  0
    3.9234   -2.0687   -0.0000 C   0  0  0  0  0  0  0  0  0  0  0  0
   -3.9471   -2.1876   -0.0000 C   0  0  0  0  0  0  0  0  0  0  0  0
   -2.6512   -4.4465   -0.0000 C   0  0  0  0  0  0  0  0  0  0  0  0
    4.1730    0.3567   -0.0000 N   0  0  0  0  0  0  0  0  0  0  0  0
    4.9220   -0.9392   -0.0000 C   0  0  0  0  0  0  0  0  0  0  0  0
    4.3633   -3.4835   -0.0000 C   0  0  0  0  0  0  0  0  0  0  0  0
   -3.9590   -3.6856   -0.0000 C   0  0  0  0  0  0  0  0  0  0  0  0
   -5.3976   -1.7120   -0.0000 C   0  0  0  0  0  0  0  0  0  0  0  0
    6.3725   -1.2365   -0.0000 C   0  0  0  0  0  0  0  0  0  0  0  0
    5.8137   -3.7926   -0.0000 C   0  0  0  0  0  0  0  0  0  0  0  0
   -5.4095   -4.1374   -0.0000 N   0  0  0  0  0  0  0  0  0  0  0  0
   -6.3012   -2.9247   -0.0000 C   0  0  0  0  0  0  0  0  0  0  0  0
    6.8124   -2.6631   -0.0000 C   0  0  0  0  0  0  0  0  0  0  0  0
  1  2  2  0  0  0  0
  2  3  1  0  0  0  0
  2  4  1  0  0  0  0
  3  5  1  0  0  0  0
  4  6  2  0  0  0  0
  4  7  1  0  0  0  0
  5  8  1  0  0  0  0
  5  9  1  0  0  0  0
  6 10  1  0  0  0  0
  7 11  2  0  0  0  0
  8 12  2  0  0  0  0
  9 13  2  0  0  0  0
  9 14  1  0  0  0  0
 10 15  2  0  0  0  0
 10 16  1  0  0  0  0
 13 17  1  0  0  0  0
 14 18  2  0  0  0  0
 15 19  1  0  0  0  0
 16 20  2  0  0  0  0
 17 21  2  0  0  0  0
 11 15  1  0  0  0  0
 12 13  1  0  0  0  0
 18 21  1  0  0  0  0
 19 20  1  0  0  0  0
M  END
>  <MolRegNo>
493962

>  <m>
=

>  <Value>
200

>  <Unit>
nM

>  <Type>
IC50

>  <Ligand Efficiency>


>  <Binding Efficiency>


>  <Surface Efficiency>


>  <Assay Index>
341535

>  <Assay Category>


>  <Assay Organism>
SARS coronavirus

>  <Target ID>
100499

>  <Target Name>
SARS coronavirus

>  <Target Organism>
SARS coronavirus

>  <Target Description>
Target is a complete organism

>  <Sequence Accession>


>  <Reference>
Bioorg. Med. Chem. Lett. 18 (20), 5684-5688 (2008)

>  <Pubmed ID>
18796354

>  <DOI>
10.1016/j.bmcl.2008.08.082

>  <InChI-Key>
YPFWNRLSYPAVJB-UHFFFAOYSA-N

>  <Molecular Formula>
C15H10N4O2

>  <Monoisotopic Mass>
278.080376

>  <Druglikeness>
-7.5549

$$$$
Compound 648
Actelion Java MolfileCreator 1.0

 35 39  0  0  0  0  0  0  0  0999 V2000
    0.0000   -0.0000   -0.0000 Cl  0  0  0  0  0  0  0  0  0  0  0  0
   -0.0122   -1.2274   -0.0000 C   0  0  0  0  0  0  0  0  0  0  0  0
   -1.3611   -1.9809   -0.0000 C   0  0  0  0  0  0  0  0  0  0  0  0
    1.3125   -1.9809   -0.0000 C   0  0  0  0  0  0  0  0  0  0  0  0
   -1.3732   -3.5121   -0.0000 C   0  0  0  0  0  0  0  0  0  0  0  0
    1.3003   -3.5121   -0.0000 C   0  0  0  0  0  0  0  0  0  0  0  0
   -0.0486   -4.2656   -0.0000 C   0  0  0  0  0  0  0  0  0  0  0  0
   -2.7222   -4.2656   -0.0000 C   0  0  0  0  0  0  0  0  0  0  0  0
   -0.0608   -5.7968   -0.0000 C   0  0  0  0  0  0  0  0  0  0  0  0
   -4.1197   -3.6215   -0.0000 O   0  0  0  0  0  0  0  0  0  0  0  0
   -2.8680   -5.7725   -0.0000 C   0  0  0  0  0  0  0  0  0  0  0  0
    0.9965   -6.4044   -0.0000 O   0  0  0  0  0  0  0  0  0  0  0  0
   -1.1423   -6.4044   -0.0000 O   0  0  0  0  0  0  0  0  0  0  0  0
   -5.1648   -4.7517   -0.0000 C   0  0  0  0  0  0  0  0  0  0  0  0
   -4.3871   -6.0884   -0.0000 C   0  0  0  0  0  0  0  0  0  0  0  0
   -6.7082   -4.5815   -0.0000 C   0  0  0  0  0  0  0  0  0  0  0  0
   -7.6197   -5.8211   -0.0000 C   0  0  0  0  0  0  0  0  0  0  0  0
   -7.1457   -7.2551   -0.0000 C   0  0  0  0  0  0  0  0  0  0  0  0
   -9.1630   -5.7968   -0.0000 C   0  0  0  0  0  0  0  0  0  0  0  0
   -5.9791   -7.6197   -0.0000 O   0  0  0  0  0  0  0  0  0  0  0  0
   -8.4096   -8.1544   -0.0000 N   0  0  0  0  0  0  0  0  0  0  0  0
   -9.6491   -7.2551   -0.0000 N   0  0  0  0  0  0  0  0  0  0  0  0
  -10.0745   -4.5329   -0.0000 C   0  0  0  0  0  0  0  0  0  0  0  0
   -8.4217   -9.6856   -0.0000 C   0  0  0  0  0  0  0  0  0  0  0  0
   -9.5641   -3.0746   -0.0000 C   0  0  0  0  0  0  0  0  0  0  0  0
  -11.6057   -4.8003   -0.0000 C   0  0  0  0  0  0  0  0  0  0  0  0
   -7.1579  -10.5363   -0.0000 C   0  0  0  0  0  0  0  0  0  0  0  0
   -9.8314  -10.3418   -0.0000 C   0  0  0  0  0  0  0  0  0  0  0  0
  -10.5727   -1.8836   -0.0000 C   0  0  0  0  0  0  0  0  0  0  0  0
  -12.6144   -3.6093   -0.0000 C   0  0  0  0  0  0  0  0  0  0  0  0
   -7.2794  -12.0675   -0.0000 C   0  0  0  0  0  0  0  0  0  0  0  0
   -9.9530  -11.8731   -0.0000 C   0  0  0  0  0  0  0  0  0  0  0  0
  -12.1040   -2.1510   -0.0000 C   0  0  0  0  0  0  0  0  0  0  0  0
   -8.6769  -12.7237   -0.0000 C   0  0  0  0  0  0  0  0  0  0  0  0
   -8.7863  -13.9390   -0.0000 F   0  0  0  0  0  0  0  0  0  0  0  0
  1  2  1  0  0  0  0
  2  3  2  0  0  0  0
  2  4  1  0  0  0  0
  3  5  1  0  0  0  0
  4  6  2  0  0  0  0
  5  7  2  0  0  0  0
  5  8  1  0  0  0  0
  7  9  1  0  0  0  0
  8 10  1  0  0  0  0
  8 11  2  0  0  0  0
  9 12  2  0  0  0  0
  9 13  1  0  0  0  0
 10 14  1  0  0  0  0
 11 15  1  0  0  0  0
 14 16  1  0  0  0  0
 16 17  2  0  0  0  0
 17 18  1  0  0  0  0
 17 19  1  0  0  0  0
 18 20  2  0  0  0  0
 18 21  1  0  0  0  0
 19 22  2  0  0  0  0
 19 23  1  0  0  0  0
 21 24  1  0  0  0  0
 23 25  2  0  0  0  0
 23 26  1  0  0  0  0
 24 27  2  0  0  0  0
 24 28  1  0  0  0  0
 25 29  1  0  0  0  0
 26 30  2  0  0  0  0
 27 31  1  0  0  0  0
 28 32  2  0  0  0  0
 29 33  2  0  0  0  0
 31 34  2  0  0  0  0
 34 35  1  0  0  0  0
  6  7  1  0  0  0  0
 14 15  2  0  0  0  0
 21 22  1  0  0  0  0
 30 33  1  0  0  0  0
 32 34  1  0  0  0  0
M  END
>  <MolRegNo>
2087891

>  <m>
=

>  <Value>
20200

>  <Unit>
nM

>  <Type>
IC50

>  <Ligand Efficiency>
0.18

>  <Binding Efficiency>
9.64

>  <Surface Efficiency>
5.65

>  <Assay Index>
1017144

>  <Assay Category>


>  <Assay Organism>
SARS coronavirus

>  <Target ID>
101075

>  <Target Name>
Replicase polyprotein 1ab

>  <Target Organism>
SARS coronavirus

>  <Target Description>
Target is a single protein chain

>  <Sequence Accession>
P0C6X7

>  <Reference>
Bioorg. Med. Chem. 24 (13), 3035-3042 (2016)

>  <Pubmed ID>
27240464

>  <DOI>
10.1016/j.bmc.2016.05.013

>  <InChI-Key>
YQHUXSFPUWHNEN-UHFFFAOYSA-N

>  <Molecular Formula>
C27H16N2O4ClF

>  <Monoisotopic Mass>
486.078263

>  <Druglikeness>
3.6817

$$$$
Compound 649
Actelion Java MolfileCreator 1.0

 32 35  0  0  0  0  0  0  0  0999 V2000
    0.0000   -0.0000   -0.0000 O   0  0  0  0  0  0  0  0  0  0  0  0
   -0.0119   -1.4885   -0.0000 C   0  0  0  0  0  0  0  0  0  0  0  0
    1.2741   -2.2268   -0.0000 N   0  0  0  0  0  0  0  0  0  0  0  0
   -1.3218   -2.2268   -0.0000 C   0  0  0  0  0  0  0  0  0  0  0  0
    2.5602   -1.4647   -0.0000 C   0  0  0  0  0  0  0  0  0  0  0  0
   -1.3337   -3.7152   -0.0000 C   0  0  0  0  0  0  0  0  0  0  0  0
   -2.6435   -1.4647   -0.0000 C   0  0  0  0  0  0  0  0  0  0  0  0
    3.8462   -2.2029   -0.0000 C   0  0  0  0  0  0  0  0  0  0  0  0
   -2.6435   -4.4535   -0.0000 C   0  0  0  0  0  0  0  0  0  0  0  0
   -3.9653   -2.2029   -0.0000 C   0  0  0  0  0  0  0  0  0  0  0  0
    5.1322   -1.4408   -0.0000 C   0  0  0  0  0  0  0  0  0  0  0  0
    3.8343   -3.6914   -0.0000 C   0  0  0  0  0  0  0  0  0  0  0  0
   -3.9653   -3.6914   -0.0000 N   0  0  0  0  0  0  0  0  0  0  0  0
    6.4183   -2.1672   -0.0000 C   0  0  0  0  0  0  0  0  0  0  0  0
    5.1203   -4.4297   -0.0000 C   0  0  0  0  0  0  0  0  0  0  0  0
   -5.2751   -4.4416   -0.0000 C   0  0  0  0  0  0  0  0  0  0  0  0
    7.7043   -1.3932   -0.0000 N   0  0  0  0  0  0  0  0  0  0  0  0
    6.4064   -3.6557   -0.0000 C   0  0  0  0  0  0  0  0  0  0  0  0
   -5.2751   -5.9301   -0.0000 C   0  0  0  0  0  0  0  0  0  0  0  0
   -6.5969   -3.6795   -0.0000 C   0  0  0  0  0  0  0  0  0  0  0  0
    9.0023   -2.1315   -0.0000 C   0  0  0  0  0  0  0  0  0  0  0  0
   -6.5850   -6.6683   -0.0000 C   0  0  0  0  0  0  0  0  0  0  0  0
   -3.9772   -6.6564   -0.0000 C   0  0  0  0  0  0  0  0  0  0  0  0
   10.2883   -1.3575   -0.0000 O   0  0  0  0  0  0  0  0  0  0  0  0
    9.0023   -3.6200   -0.0000 C   0  0  0  0  0  0  0  0  0  0  0  0
   -6.5969   -8.1687   -0.0000 C   0  0  0  0  0  0  0  0  0  0  0  0
   -7.8948   -5.9063   -0.0000 C   0  0  0  0  0  0  0  0  0  0  0  0
   -3.9772   -8.1568   -0.0000 C   0  0  0  0  0  0  0  0  0  0  0  0
   -5.3109   -8.9070   -0.0000 C   0  0  0  0  0  0  0  0  0  0  0  0
   -7.9068   -8.9189   -0.0000 C   0  0  0  0  0  0  0  0  0  0  0  0
   -9.2047   -6.6445   -0.0000 C   0  0  0  0  0  0  0  0  0  0  0  0
   -9.2166   -8.1568   -0.0000 C   0  0  0  0  0  0  0  0  0  0  0  0
  1  2  2  0  0  0  0
  2  3  1  0  0  0  0
  2  4  1  0  0  0  0
  3  5  1  0  0  0  0
  4  6  1  0  0  0  0
  4  7  1  0  0  0  0
  5  8  1  0  0  0  0
  6  9  1  0  0  0  0
  7 10  1  0  0  0  0
  8 11  2  0  0  0  0
  8 12  1  0  0  0  0
  9 13  1  0  0  0  0
 11 14  1  0  0  0  0
 12 15  2  0  0  0  0
 16 13  1  6  0  0  0
 14 17  1  0  0  0  0
 14 18  2  0  0  0  0
 16 19  1  0  0  0  0
 16 20  1  0  0  0  0
 17 21  1  0  0  0  0
 19 22  1  0  0  0  0
 19 23  2  0  0  0  0
 21 24  2  0  0  0  0
 21 25  1  0  0  0  0
 22 26  1  0  0  0  0
 22 27  2  0  0  0  0
 23 28  1  0  0  0  0
 26 29  1  0  0  0  0
 26 30  2  0  0  0  0
 27 31  1  0  0  0  0
 30 32  1  0  0  0  0
 10 13  1  0  0  0  0
 15 18  1  0  0  0  0
 28 29  2  0  0  0  0
 31 32  2  0  0  0  0
M  END
>  <MolRegNo>
1732316

>  <m>
=

>  <Value>
8300

>  <Unit>
nM

>  <Type>
EC50

>  <Ligand Efficiency>


>  <Binding Efficiency>


>  <Surface Efficiency>


>  <Assay Index>
843084

>  <Assay Category>


>  <Assay Organism>
SARS coronavirus

>  <Target ID>
100499

>  <Target Name>
SARS coronavirus

>  <Target Organism>
SARS coronavirus

>  <Target Description>
Target is a complete organism

>  <Sequence Accession>


>  <Reference>
J. Med. Chem. 57 (6), 2393-2412 (2014)

>  <Pubmed ID>
24568342

>  <DOI>
10.1021/jm401712t

>  <InChI-Key>
YQRGVYYHRJBSOR-IBGZPJMESA-N

>  <Molecular Formula>
C27H31N3O2

>  <Monoisotopic Mass>
429.241627

>  <Druglikeness>
7.0133

$$$$
Compound 650
Actelion Java MolfileCreator 1.0

 36 40  0  0  0  0  0  0  0  0999 V2000
    0.0000   -0.0000   -0.0000 O   0  0  0  0  0  0  0  0  0  0  0  0
   -0.2639   -1.1758   -0.0000 C   0  0  0  0  0  0  0  0  0  0  0  0
   -1.6437   -1.7877   -0.0000 N   0  0  0  0  0  0  0  0  0  0  0  0
    0.7439   -2.2916   -0.0000 C   0  0  0  0  0  0  0  0  0  0  0  0
   -1.5237   -3.2754   -0.0000 N   0  0  0  0  0  0  0  0  0  0  0  0
   -2.9754   -1.0198   -0.0000 C   0  0  0  0  0  0  0  0  0  0  0  0
   -0.0360   -3.5993   -0.0000 C   0  0  0  0  0  0  0  0  0  0  0  0
    2.2436   -2.1236   -0.0000 C   0  0  0  0  0  0  0  0  0  0  0  0
   -4.3072   -1.7637   -0.0000 C   0  0  0  0  0  0  0  0  0  0  0  0
   -2.9874    0.5159   -0.0000 C   0  0  0  0  0  0  0  0  0  0  0  0
    0.5639   -4.9790   -0.0000 C   0  0  0  0  0  0  0  0  0  0  0  0
    2.8555   -0.7199   -0.0000 C   0  0  0  0  0  0  0  0  0  0  0  0
   -5.6389   -0.9958   -0.0000 C   0  0  0  0  0  0  0  0  0  0  0  0
   -4.3192    1.2838   -0.0000 C   0  0  0  0  0  0  0  0  0  0  0  0
   -0.2520   -6.2508   -0.0000 C   0  0  0  0  0  0  0  0  0  0  0  0
    2.0756   -5.0150   -0.0000 C   0  0  0  0  0  0  0  0  0  0  0  0
    4.3552   -0.5519   -0.0000 C   0  0  0  0  0  0  0  0  0  0  0  0
    1.9556    0.5279   -0.0000 C   0  0  0  0  0  0  0  0  0  0  0  0
   -6.9707   -1.7517   -0.0000 C   0  0  0  0  0  0  0  0  0  0  0  0
   -5.6509    0.5399   -0.0000 C   0  0  0  0  0  0  0  0  0  0  0  0
    0.4559   -7.5825   -0.0000 C   0  0  0  0  0  0  0  0  0  0  0  0
    2.7835   -6.3468   -0.0000 C   0  0  0  0  0  0  0  0  0  0  0  0
    4.9670    0.8518   -0.0000 C   0  0  0  0  0  0  0  0  0  0  0  0
    2.5675    1.9316   -0.0000 C   0  0  0  0  0  0  0  0  0  0  0  0
   -6.9827   -2.9634   -0.0000 O   0  0  0  0  0  0  0  0  0  0  0  0
   -8.0385   -1.1278   -0.0000 O   0  0  0  0  0  0  0  0  0  0  0  0
    1.9676   -7.6185   -0.0000 C   0  0  0  0  0  0  0  0  0  0  0  0
    4.0672    2.0996   -0.0000 C   0  0  0  0  0  0  0  0  0  0  0  0
    4.6791    3.5033   -0.0000 O   0  0  0  0  0  0  0  0  0  0  0  0
    3.7673    4.7511   -0.0000 C   0  0  0  0  0  0  0  0  0  0  0  0
    4.3792    6.1548   -0.0000 C   0  0  0  0  0  0  0  0  0  0  0  0
    3.4793    7.4026   -0.0000 C   0  0  0  0  0  0  0  0  0  0  0  0
    5.8789    6.3228   -0.0000 C   0  0  0  0  0  0  0  0  0  0  0  0
    4.0912    8.8063   -0.0000 C   0  0  0  0  0  0  0  0  0  0  0  0
    6.4908    7.7265   -0.0000 C   0  0  0  0  0  0  0  0  0  0  0  0
    5.5909    8.9743   -0.0000 C   0  0  0  0  0  0  0  0  0  0  0  0
  1  2  2  0  0  0  0
  2  3  1  0  0  0  0
  2  4  1  0  0  0  0
  3  5  1  0  0  0  0
  3  6  1  0  0  0  0
  4  7  1  0  0  0  0
  4  8  2  0  0  0  0
  6  9  2  0  0  0  0
  6 10  1  0  0  0  0
  7 11  1  0  0  0  0
  8 12  1  0  0  0  0
  9 13  1  0  0  0  0
 10 14  2  0  0  0  0
 11 15  2  0  0  0  0
 11 16  1  0  0  0  0
 12 17  2  0  0  0  0
 12 18  1  0  0  0  0
 13 19  1  0  0  0  0
 13 20  2  0  0  0  0
 15 21  1  0  0  0  0
 16 22  2  0  0  0  0
 17 23  1  0  0  0  0
 18 24  2  0  0  0  0
 19 25  2  0  0  0  0
 19 26  1  0  0  0  0
 21 27  2  0  0  0  0
 23 28  2  0  0  0  0
 28 29  1  0  0  0  0
 29 30  1  0  0  0  0
 30 31  1  0  0  0  0
 31 32  2  0  0  0  0
 31 33  1  0  0  0  0
 32 34  1  0  0  0  0
 33 35  2  0  0  0  0
 34 36  2  0  0  0  0
  5  7  2  0  0  0  0
 14 20  1  0  0  0  0
 22 27  1  0  0  0  0
 24 28  1  0  0  0  0
 35 36  1  0  0  0  0
M  END
>  <MolRegNo>
2087684

>  <m>
=

>  <Value>
15700

>  <Unit>
nM

>  <Type>
IC50

>  <Ligand Efficiency>
0.18

>  <Binding Efficiency>
10.12

>  <Surface Efficiency>
6.07

>  <Assay Index>
1017144

>  <Assay Category>


>  <Assay Organism>
SARS coronavirus

>  <Target ID>
101075

>  <Target Name>
Replicase polyprotein 1ab

>  <Target Organism>
SARS coronavirus

>  <Target Description>
Target is a single protein chain

>  <Sequence Accession>
P0C6X7

>  <Reference>
Bioorg. Med. Chem. 24 (13), 3035-3042 (2016)

>  <Pubmed ID>
27240464

>  <DOI>
10.1016/j.bmc.2016.05.013

>  <InChI-Key>
YTINGXAULBAGRW-UHFFFAOYSA-N

>  <Molecular Formula>
C30H22N2O4

>  <Monoisotopic Mass>
474.157958

>  <Druglikeness>
3.8828

$$$$
Compound 651
Actelion Java MolfileCreator 1.0

 17 19  0  0  1  0  0  0  0  0999 V2000
    0.0000   -0.0000   -0.0000 O   0  0  0  0  0  0  0  0  0  0  0  0
   -1.2521    0.8580   -0.0000 C   0  0  0  0  0  0  0  0  0  0  0  0
   -1.7507   -0.5681   -0.0000 C   0  0  0  0  0  0  0  0  0  0  0  0
   -2.0753    1.9710   -0.0000 C   0  0  0  0  0  0  0  0  0  0  0  0
   -0.4174    2.1101   -0.0000 C   0  0  0  0  0  0  0  0  0  0  0  0
   -2.6898   -1.7391   -0.0000 C   0  0  0  0  0  0  0  0  0  0  0  0
   -2.6086    0.6840   -0.0000 C   0  0  0  0  0  0  0  0  0  0  0  0
   -3.5593    1.7043   -0.0000 C   0  0  0  0  0  0  0  0  0  0  0  0
   -4.1158   -1.2174   -0.0000 C   0  0  0  0  0  0  0  0  0  0  0  0
   -3.6753   -2.8637   -0.0000 C   0  0  0  0  0  0  0  0  0  0  0  0
   -1.4724   -2.5739   -0.0000 C   0  0  0  0  0  0  0  0  0  0  0  0
   -4.0579    0.2783   -0.0000 C   0  0  0  0  0  0  0  0  0  0  0  0
   -5.5651   -1.6232   -0.0000 C   0  0  0  0  0  0  0  0  0  0  0  0
   -3.1883   -4.2666   -0.0000 O   0  0  0  0  0  0  0  0  0  0  0  0
   -5.4839    0.8000   -0.0000 C   0  0  0  0  0  0  0  0  0  0  0  0
   -6.4230   -0.3710   -0.0000 C   0  0  0  0  0  0  0  0  0  0  0  0
   -5.9245    2.2608   -0.0000 C   0  0  0  0  0  0  0  0  0  0  0  0
  2  1  1  1  0  0  0
  2  3  1  0  0  0  0
  2  4  1  0  0  0  0
  2  5  1  0  0  0  0
  3  6  1  0  0  0  0
  3  7  1  6  0  0  0
  4  8  1  0  0  0  0
  6  9  1  0  0  0  0
  6 10  1  6  0  0  0
  6 11  1  0  0  0  0
 12  7  1  6  0  0  0
  9 13  1  6  0  0  0
 10 14  1  0  0  0  0
 12 15  1  0  0  0  0
 13 16  1  0  0  0  0
 15 17  1  1  0  0  0
  8 12  1  0  0  0  0
  9 12  1  0  0  0  0
 15 16  1  0  0  0  0
M  END
>  <MolRegNo>
387477

>  <m>


>  <Value>
0

>  <Unit>


>  <Type>
Activity

>  <Ligand Efficiency>


>  <Binding Efficiency>


>  <Surface Efficiency>


>  <Assay Index>
294025

>  <Assay Category>


>  <Assay Organism>
SARS coronavirus

>  <Target ID>
100499

>  <Target Name>
SARS coronavirus

>  <Target Organism>
SARS coronavirus

>  <Target Description>
Target is a complete organism

>  <Sequence Accession>


>  <Reference>
J. Med. Chem. 50 (17), 4087-4095 (2007)

>  <Pubmed ID>
17663539

>  <DOI>
10.1021/jm070295s

>  <InChI-Key>
YULHLOUAHSEHLD-QFEQQRJNSA-N

>  <Molecular Formula>
C15H26O2

>  <Monoisotopic Mass>
238.193280

>  <Druglikeness>
-2.8641

$$$$
Compound 652
Actelion Java MolfileCreator 1.0

 17 19  0  0  1  0  0  0  0  0999 V2000
    0.0000   -0.0000   -0.0000 O   0  0  0  0  0  0  0  0  0  0  0  0
   -1.2521    0.8580   -0.0000 C   0  0  0  0  0  0  0  0  0  0  0  0
   -1.7507   -0.5681   -0.0000 C   0  0  0  0  0  0  0  0  0  0  0  0
   -2.0753    1.9710   -0.0000 C   0  0  0  0  0  0  0  0  0  0  0  0
   -0.4174    2.1101   -0.0000 C   0  0  0  0  0  0  0  0  0  0  0  0
   -2.6898   -1.7391   -0.0000 C   0  0  0  0  0  0  0  0  0  0  0  0
   -2.6086    0.6840   -0.0000 C   0  0  0  0  0  0  0  0  0  0  0  0
   -3.5593    1.7043   -0.0000 C   0  0  0  0  0  0  0  0  0  0  0  0
   -4.1158   -1.2174   -0.0000 C   0  0  0  0  0  0  0  0  0  0  0  0
   -3.6753   -2.8637   -0.0000 C   0  0  0  0  0  0  0  0  0  0  0  0
   -1.4724   -2.5739   -0.0000 C   0  0  0  0  0  0  0  0  0  0  0  0
   -4.0579    0.2783   -0.0000 C   0  0  0  0  0  0  0  0  0  0  0  0
   -5.5651   -1.6232   -0.0000 C   0  0  0  0  0  0  0  0  0  0  0  0
   -3.1883   -4.2666   -0.0000 O   0  0  0  0  0  0  0  0  0  0  0  0
   -5.4839    0.8000   -0.0000 C   0  0  0  0  0  0  0  0  0  0  0  0
   -6.4230   -0.3710   -0.0000 C   0  0  0  0  0  0  0  0  0  0  0  0
   -5.9245    2.2608   -0.0000 C   0  0  0  0  0  0  0  0  0  0  0  0
  2  1  1  1  0  0  0
  2  3  1  0  0  0  0
  2  4  1  0  0  0  0
  2  5  1  0  0  0  0
  3  6  1  0  0  0  0
  3  7  1  6  0  0  0
  4  8  1  0  0  0  0
  6  9  1  0  0  0  0
  6 10  1  6  0  0  0
  6 11  1  0  0  0  0
 12  7  1  6  0  0  0
  9 13  1  6  0  0  0
 10 14  1  0  0  0  0
 12 15  1  0  0  0  0
 13 16  1  0  0  0  0
 15 17  1  1  0  0  0
  8 12  1  0  0  0  0
  9 12  1  0  0  0  0
 15 16  1  0  0  0  0
M  END
>  <MolRegNo>
387477

>  <m>
>

>  <Value>
10000

>  <Unit>
nM

>  <Type>
EC50

>  <Ligand Efficiency>


>  <Binding Efficiency>


>  <Surface Efficiency>


>  <Assay Index>
294026

>  <Assay Category>


>  <Assay Organism>
SARS coronavirus

>  <Target ID>
100499

>  <Target Name>
SARS coronavirus

>  <Target Organism>
SARS coronavirus

>  <Target Description>
Target is a complete organism

>  <Sequence Accession>


>  <Reference>
J. Med. Chem. 50 (17), 4087-4095 (2007)

>  <Pubmed ID>
17663539

>  <DOI>
10.1021/jm070295s

>  <InChI-Key>
YULHLOUAHSEHLD-QFEQQRJNSA-N

>  <Molecular Formula>
C15H26O2

>  <Monoisotopic Mass>
238.193280

>  <Druglikeness>
-2.8641

$$$$
Compound 653
Actelion Java MolfileCreator 1.0

 17 19  0  0  1  0  0  0  0  0999 V2000
    0.0000   -0.0000   -0.0000 O   0  0  0  0  0  0  0  0  0  0  0  0
   -1.2521    0.8580   -0.0000 C   0  0  0  0  0  0  0  0  0  0  0  0
   -1.7507   -0.5681   -0.0000 C   0  0  0  0  0  0  0  0  0  0  0  0
   -2.0753    1.9710   -0.0000 C   0  0  0  0  0  0  0  0  0  0  0  0
   -0.4174    2.1101   -0.0000 C   0  0  0  0  0  0  0  0  0  0  0  0
   -2.6898   -1.7391   -0.0000 C   0  0  0  0  0  0  0  0  0  0  0  0
   -2.6086    0.6840   -0.0000 C   0  0  0  0  0  0  0  0  0  0  0  0
   -3.5593    1.7043   -0.0000 C   0  0  0  0  0  0  0  0  0  0  0  0
   -4.1158   -1.2174   -0.0000 C   0  0  0  0  0  0  0  0  0  0  0  0
   -3.6753   -2.8637   -0.0000 C   0  0  0  0  0  0  0  0  0  0  0  0
   -1.4724   -2.5739   -0.0000 C   0  0  0  0  0  0  0  0  0  0  0  0
   -4.0579    0.2783   -0.0000 C   0  0  0  0  0  0  0  0  0  0  0  0
   -5.5651   -1.6232   -0.0000 C   0  0  0  0  0  0  0  0  0  0  0  0
   -3.1883   -4.2666   -0.0000 O   0  0  0  0  0  0  0  0  0  0  0  0
   -5.4839    0.8000   -0.0000 C   0  0  0  0  0  0  0  0  0  0  0  0
   -6.4230   -0.3710   -0.0000 C   0  0  0  0  0  0  0  0  0  0  0  0
   -5.9245    2.2608   -0.0000 C   0  0  0  0  0  0  0  0  0  0  0  0
  2  1  1  1  0  0  0
  2  3  1  0  0  0  0
  2  4  1  0  0  0  0
  2  5  1  0  0  0  0
  3  6  1  0  0  0  0
  3  7  1  6  0  0  0
  4  8  1  0  0  0  0
  6  9  1  0  0  0  0
  6 10  1  6  0  0  0
  6 11  1  0  0  0  0
 12  7  1  6  0  0  0
  9 13  1  6  0  0  0
 10 14  1  0  0  0  0
 12 15  1  0  0  0  0
 13 16  1  0  0  0  0
 15 17  1  1  0  0  0
  8 12  1  0  0  0  0
  9 12  1  0  0  0  0
 15 16  1  0  0  0  0
M  END
>  <MolRegNo>
387477

>  <m>
=

>  <Value>
50

>  <Unit>
%

>  <Type>
Inhibition

>  <Ligand Efficiency>


>  <Binding Efficiency>


>  <Surface Efficiency>


>  <Assay Index>
294024

>  <Assay Category>


>  <Assay Organism>
SARS coronavirus

>  <Target ID>
100499

>  <Target Name>
SARS coronavirus

>  <Target Organism>
SARS coronavirus

>  <Target Description>
Target is a complete organism

>  <Sequence Accession>


>  <Reference>
J. Med. Chem. 50 (17), 4087-4095 (2007)

>  <Pubmed ID>
17663539

>  <DOI>
10.1021/jm070295s

>  <InChI-Key>
YULHLOUAHSEHLD-QFEQQRJNSA-N

>  <Molecular Formula>
C15H26O2

>  <Monoisotopic Mass>
238.193280

>  <Druglikeness>
-2.8641

$$$$
Compound 654
Actelion Java MolfileCreator 1.0

 17 19  0  0  1  0  0  0  0  0999 V2000
    0.0000   -0.0000   -0.0000 O   0  0  0  0  0  0  0  0  0  0  0  0
   -1.2521    0.8580   -0.0000 C   0  0  0  0  0  0  0  0  0  0  0  0
   -1.7507   -0.5681   -0.0000 C   0  0  0  0  0  0  0  0  0  0  0  0
   -2.0753    1.9710   -0.0000 C   0  0  0  0  0  0  0  0  0  0  0  0
   -0.4174    2.1101   -0.0000 C   0  0  0  0  0  0  0  0  0  0  0  0
   -2.6898   -1.7391   -0.0000 C   0  0  0  0  0  0  0  0  0  0  0  0
   -2.6086    0.6840   -0.0000 C   0  0  0  0  0  0  0  0  0  0  0  0
   -3.5593    1.7043   -0.0000 C   0  0  0  0  0  0  0  0  0  0  0  0
   -4.1158   -1.2174   -0.0000 C   0  0  0  0  0  0  0  0  0  0  0  0
   -3.6753   -2.8637   -0.0000 C   0  0  0  0  0  0  0  0  0  0  0  0
   -1.4724   -2.5739   -0.0000 C   0  0  0  0  0  0  0  0  0  0  0  0
   -4.0579    0.2783   -0.0000 C   0  0  0  0  0  0  0  0  0  0  0  0
   -5.5651   -1.6232   -0.0000 C   0  0  0  0  0  0  0  0  0  0  0  0
   -3.1883   -4.2666   -0.0000 O   0  0  0  0  0  0  0  0  0  0  0  0
   -5.4839    0.8000   -0.0000 C   0  0  0  0  0  0  0  0  0  0  0  0
   -6.4230   -0.3710   -0.0000 C   0  0  0  0  0  0  0  0  0  0  0  0
   -5.9245    2.2608   -0.0000 C   0  0  0  0  0  0  0  0  0  0  0  0
  2  1  1  1  0  0  0
  2  3  1  0  0  0  0
  2  4  1  0  0  0  0
  2  5  1  0  0  0  0
  3  6  1  0  0  0  0
  3  7  1  6  0  0  0
  4  8  1  0  0  0  0
  6  9  1  0  0  0  0
  6 10  1  6  0  0  0
  6 11  1  0  0  0  0
 12  7  1  6  0  0  0
  9 13  1  6  0  0  0
 10 14  1  0  0  0  0
 12 15  1  0  0  0  0
 13 16  1  0  0  0  0
 15 17  1  1  0  0  0
  8 12  1  0  0  0  0
  9 12  1  0  0  0  0
 15 16  1  0  0  0  0
M  END
>  <MolRegNo>
387477

>  <m>
<

>  <Value>
25

>  <Unit>
%

>  <Type>
Inhibition

>  <Ligand Efficiency>


>  <Binding Efficiency>


>  <Surface Efficiency>


>  <Assay Index>
294022

>  <Assay Category>


>  <Assay Organism>
SARS coronavirus

>  <Target ID>
100499

>  <Target Name>
SARS coronavirus

>  <Target Organism>
SARS coronavirus

>  <Target Description>
Target is a complete organism

>  <Sequence Accession>


>  <Reference>
J. Med. Chem. 50 (17), 4087-4095 (2007)

>  <Pubmed ID>
17663539

>  <DOI>
10.1021/jm070295s

>  <InChI-Key>
YULHLOUAHSEHLD-QFEQQRJNSA-N

>  <Molecular Formula>
C15H26O2

>  <Monoisotopic Mass>
238.193280

>  <Druglikeness>
-2.8641

$$$$
Compound 655
Actelion Java MolfileCreator 1.0

 17 19  0  0  1  0  0  0  0  0999 V2000
    0.0000   -0.0000   -0.0000 O   0  0  0  0  0  0  0  0  0  0  0  0
   -1.2521    0.8580   -0.0000 C   0  0  0  0  0  0  0  0  0  0  0  0
   -1.7507   -0.5681   -0.0000 C   0  0  0  0  0  0  0  0  0  0  0  0
   -2.0753    1.9710   -0.0000 C   0  0  0  0  0  0  0  0  0  0  0  0
   -0.4174    2.1101   -0.0000 C   0  0  0  0  0  0  0  0  0  0  0  0
   -2.6898   -1.7391   -0.0000 C   0  0  0  0  0  0  0  0  0  0  0  0
   -2.6086    0.6840   -0.0000 C   0  0  0  0  0  0  0  0  0  0  0  0
   -3.5593    1.7043   -0.0000 C   0  0  0  0  0  0  0  0  0  0  0  0
   -4.1158   -1.2174   -0.0000 C   0  0  0  0  0  0  0  0  0  0  0  0
   -3.6753   -2.8637   -0.0000 C   0  0  0  0  0  0  0  0  0  0  0  0
   -1.4724   -2.5739   -0.0000 C   0  0  0  0  0  0  0  0  0  0  0  0
   -4.0579    0.2783   -0.0000 C   0  0  0  0  0  0  0  0  0  0  0  0
   -5.5651   -1.6232   -0.0000 C   0  0  0  0  0  0  0  0  0  0  0  0
   -3.1883   -4.2666   -0.0000 O   0  0  0  0  0  0  0  0  0  0  0  0
   -5.4839    0.8000   -0.0000 C   0  0  0  0  0  0  0  0  0  0  0  0
   -6.4230   -0.3710   -0.0000 C   0  0  0  0  0  0  0  0  0  0  0  0
   -5.9245    2.2608   -0.0000 C   0  0  0  0  0  0  0  0  0  0  0  0
  2  1  1  1  0  0  0
  2  3  1  0  0  0  0
  2  4  1  0  0  0  0
  2  5  1  0  0  0  0
  3  6  1  0  0  0  0
  3  7  1  6  0  0  0
  4  8  1  0  0  0  0
  6  9  1  0  0  0  0
  6 10  1  6  0  0  0
  6 11  1  0  0  0  0
 12  7  1  6  0  0  0
  9 13  1  6  0  0  0
 10 14  1  0  0  0  0
 12 15  1  0  0  0  0
 13 16  1  0  0  0  0
 15 17  1  1  0  0  0
  8 12  1  0  0  0  0
  9 12  1  0  0  0  0
 15 16  1  0  0  0  0
M  END
>  <MolRegNo>
387477

>  <m>
=

>  <Value>
25

>  <Unit>
%

>  <Type>
Inhibition

>  <Ligand Efficiency>


>  <Binding Efficiency>


>  <Surface Efficiency>


>  <Assay Index>
294023

>  <Assay Category>


>  <Assay Organism>
SARS coronavirus

>  <Target ID>
100499

>  <Target Name>
SARS coronavirus

>  <Target Organism>
SARS coronavirus

>  <Target Description>
Target is a complete organism

>  <Sequence Accession>


>  <Reference>
J. Med. Chem. 50 (17), 4087-4095 (2007)

>  <Pubmed ID>
17663539

>  <DOI>
10.1021/jm070295s

>  <InChI-Key>
YULHLOUAHSEHLD-QFEQQRJNSA-N

>  <Molecular Formula>
C15H26O2

>  <Monoisotopic Mass>
238.193280

>  <Druglikeness>
-2.8641

$$$$
Compound 656
Actelion Java MolfileCreator 1.0

 26 29  0  0  1  0  0  0  0  0999 V2000
    0.0000   -0.0000   -0.0000 Cl  0  0  0  0  0  0  0  0  0  0  0  0
   -1.2257   -0.8892   -0.0000 C   0  0  0  0  0  0  0  0  0  0  0  0
   -1.0815   -2.3192   -0.0000 N   0  0  0  0  0  0  0  0  0  0  0  0
   -2.6196   -0.2884   -0.0000 C   0  0  0  0  0  0  0  0  0  0  0  0
   -2.3192   -3.1603   -0.0000 C   0  0  0  0  0  0  0  0  0  0  0  0
   -3.1123    1.1055   -0.0000 N   0  0  0  0  0  0  0  0  0  0  0  0
   -3.8573   -1.1416   -0.0000 C   0  0  0  0  0  0  0  0  0  0  0  0
   -3.7251   -2.5595   -0.0000 N   0  0  0  0  0  0  0  0  0  0  0  0
   -4.6384    1.1175   -0.0000 C   0  0  0  0  0  0  0  0  0  0  0  0
   -5.0950   -0.2764   -0.0000 N   0  0  0  0  0  0  0  0  0  0  0  0
   -6.5490   -0.7210   -0.0000 C   0  0  0  0  0  0  0  0  0  0  0  0
   -7.7987    0.1442   -0.0000 O   0  0  0  0  0  0  0  0  0  0  0  0
   -7.0297   -2.0909   -0.0000 C   0  0  0  0  0  0  0  0  0  0  0  0
   -9.0364   -0.7090   -0.0000 C   0  0  0  0  0  0  0  0  0  0  0  0
   -6.1525   -3.2445   -0.0000 O   0  0  0  0  0  0  0  0  0  0  0  0
   -8.5678   -2.0789   -0.0000 C   0  0  0  0  0  0  0  0  0  0  0  0
  -10.4904   -0.2403   -0.0000 C   0  0  0  0  0  0  0  0  0  0  0  0
   -9.4570   -3.2445   -0.0000 O   0  0  0  0  0  0  0  0  0  0  0  0
  -10.8269    1.2497   -0.0000 O   0  0  0  0  0  0  0  0  0  0  0  0
  -12.1848    1.9707   -0.0000 C   0  0  0  0  0  0  0  0  0  0  0  0
  -13.4825    1.1776   -0.0000 C   0  0  0  0  0  0  0  0  0  0  0  0
  -14.8284    1.8986   -0.0000 C   0  0  0  0  0  0  0  0  0  0  0  0
  -13.4225   -0.3124   -0.0000 C   0  0  0  0  0  0  0  0  0  0  0  0
  -16.1142    1.1055   -0.0000 C   0  0  0  0  0  0  0  0  0  0  0  0
  -14.7082   -1.1175   -0.0000 C   0  0  0  0  0  0  0  0  0  0  0  0
  -16.0661   -0.3965   -0.0000 C   0  0  0  0  0  0  0  0  0  0  0  0
  1  2  1  0  0  0  0
  2  3  2  0  0  0  0
  2  4  1  0  0  0  0
  3  5  1  0  0  0  0
  4  6  1  0  0  0  0
  4  7  2  0  0  0  0
  5  8  2  0  0  0  0
  6  9  2  0  0  0  0
  7 10  1  0  0  0  0
 11 10  1  1  0  0  0
 11 12  1  0  0  0  0
 11 13  1  0  0  0  0
 12 14  1  0  0  0  0
 13 15  1  6  0  0  0
 13 16  1  0  0  0  0
 14 17  1  1  0  0  0
 16 18  1  6  0  0  0
 17 19  1  0  0  0  0
 19 20  1  0  0  0  0
 20 21  1  0  0  0  0
 21 22  2  0  0  0  0
 21 23  1  0  0  0  0
 22 24  1  0  0  0  0
 23 25  2  0  0  0  0
 24 26  2  0  0  0  0
  7  8  1  0  0  0  0
  9 10  1  0  0  0  0
 14 16  1  0  0  0  0
 25 26  1  0  0  0  0
M  END
>  <MolRegNo>
386740

>  <m>


>  <Value>
0

>  <Unit>


>  <Type>
Activity

>  <Ligand Efficiency>


>  <Binding Efficiency>


>  <Surface Efficiency>


>  <Assay Index>
287340

>  <Assay Category>


>  <Assay Organism>
SARS coronavirus

>  <Target ID>
100499

>  <Target Name>
SARS coronavirus

>  <Target Organism>
SARS coronavirus

>  <Target Description>
Target is a complete organism

>  <Sequence Accession>


>  <Reference>
Bioorg. Med. Chem. Lett. 17 (9), 2470-2473 (2007)

>  <Pubmed ID>
17336519

>  <DOI>
10.1016/j.bmcl.2007.02.026

>  <InChI-Key>
YWROAXQJSUGMRA-HVOFVXBASA-N

>  <Molecular Formula>
C17H17N4O4Cl

>  <Monoisotopic Mass>
376.093833

>  <Druglikeness>
-3.8

$$$$
Compound 657
Actelion Java MolfileCreator 1.0

 26 29  0  0  1  0  0  0  0  0999 V2000
    0.0000   -0.0000   -0.0000 Cl  0  0  0  0  0  0  0  0  0  0  0  0
   -1.2257   -0.8892   -0.0000 C   0  0  0  0  0  0  0  0  0  0  0  0
   -1.0815   -2.3192   -0.0000 N   0  0  0  0  0  0  0  0  0  0  0  0
   -2.6196   -0.2884   -0.0000 C   0  0  0  0  0  0  0  0  0  0  0  0
   -2.3192   -3.1603   -0.0000 C   0  0  0  0  0  0  0  0  0  0  0  0
   -3.1123    1.1055   -0.0000 N   0  0  0  0  0  0  0  0  0  0  0  0
   -3.8573   -1.1416   -0.0000 C   0  0  0  0  0  0  0  0  0  0  0  0
   -3.7251   -2.5595   -0.0000 N   0  0  0  0  0  0  0  0  0  0  0  0
   -4.6384    1.1175   -0.0000 C   0  0  0  0  0  0  0  0  0  0  0  0
   -5.0950   -0.2764   -0.0000 N   0  0  0  0  0  0  0  0  0  0  0  0
   -6.5490   -0.7210   -0.0000 C   0  0  0  0  0  0  0  0  0  0  0  0
   -7.7987    0.1442   -0.0000 O   0  0  0  0  0  0  0  0  0  0  0  0
   -7.0297   -2.0909   -0.0000 C   0  0  0  0  0  0  0  0  0  0  0  0
   -9.0364   -0.7090   -0.0000 C   0  0  0  0  0  0  0  0  0  0  0  0
   -6.1525   -3.2445   -0.0000 O   0  0  0  0  0  0  0  0  0  0  0  0
   -8.5678   -2.0789   -0.0000 C   0  0  0  0  0  0  0  0  0  0  0  0
  -10.4904   -0.2403   -0.0000 C   0  0  0  0  0  0  0  0  0  0  0  0
   -9.4570   -3.2445   -0.0000 O   0  0  0  0  0  0  0  0  0  0  0  0
  -10.8269    1.2497   -0.0000 O   0  0  0  0  0  0  0  0  0  0  0  0
  -12.1848    1.9707   -0.0000 C   0  0  0  0  0  0  0  0  0  0  0  0
  -13.4825    1.1776   -0.0000 C   0  0  0  0  0  0  0  0  0  0  0  0
  -14.8284    1.8986   -0.0000 C   0  0  0  0  0  0  0  0  0  0  0  0
  -13.4225   -0.3124   -0.0000 C   0  0  0  0  0  0  0  0  0  0  0  0
  -16.1142    1.1055   -0.0000 C   0  0  0  0  0  0  0  0  0  0  0  0
  -14.7082   -1.1175   -0.0000 C   0  0  0  0  0  0  0  0  0  0  0  0
  -16.0661   -0.3965   -0.0000 C   0  0  0  0  0  0  0  0  0  0  0  0
  1  2  1  0  0  0  0
  2  3  2  0  0  0  0
  2  4  1  0  0  0  0
  3  5  1  0  0  0  0
  4  6  1  0  0  0  0
  4  7  2  0  0  0  0
  5  8  2  0  0  0  0
  6  9  2  0  0  0  0
  7 10  1  0  0  0  0
 11 10  1  1  0  0  0
 11 12  1  0  0  0  0
 11 13  1  0  0  0  0
 12 14  1  0  0  0  0
 13 15  1  6  0  0  0
 13 16  1  0  0  0  0
 14 17  1  1  0  0  0
 16 18  1  6  0  0  0
 17 19  1  0  0  0  0
 19 20  1  0  0  0  0
 20 21  1  0  0  0  0
 21 22  2  0  0  0  0
 21 23  1  0  0  0  0
 22 24  1  0  0  0  0
 23 25  2  0  0  0  0
 24 26  2  0  0  0  0
  7  8  1  0  0  0  0
  9 10  1  0  0  0  0
 14 16  1  0  0  0  0
 25 26  1  0  0  0  0
M  END
>  <MolRegNo>
386740

>  <m>
=

>  <Value>
108000

>  <Unit>
nM

>  <Type>
IC50

>  <Ligand Efficiency>


>  <Binding Efficiency>


>  <Surface Efficiency>


>  <Assay Index>
287336

>  <Assay Category>


>  <Assay Organism>
SARS coronavirus

>  <Target ID>
100499

>  <Target Name>
SARS coronavirus

>  <Target Organism>
SARS coronavirus

>  <Target Description>
Target is a complete organism

>  <Sequence Accession>


>  <Reference>
Bioorg. Med. Chem. Lett. 17 (9), 2470-2473 (2007)

>  <Pubmed ID>
17336519

>  <DOI>
10.1016/j.bmcl.2007.02.026

>  <InChI-Key>
YWROAXQJSUGMRA-HVOFVXBASA-N

>  <Molecular Formula>
C17H17N4O4Cl

>  <Monoisotopic Mass>
376.093833

>  <Druglikeness>
-3.8

$$$$
Compound 658
Actelion Java MolfileCreator 1.0

 27 28  0  0  0  0  0  0  0  0999 V2000
    0.0000   -0.0000   -0.0000 S   0  0  0  0  0  0  0  0  0  0  0  0
    1.2845   -0.7374   -0.0000 C   0  0  0  0  0  0  0  0  0  0  0  0
   -1.3083   -0.7374   -0.0000 C   0  0  0  0  0  0  0  0  0  0  0  0
    2.5571    0.0357   -0.0000 N   0  0  0  0  0  0  0  0  0  0  0  0
    1.2607   -2.2241   -0.0000 N   0  0  0  0  0  0  0  0  0  0  0  0
   -2.6166    0.0238   -0.0000 C   0  0  0  0  0  0  0  0  0  0  0  0
    3.8416   -0.6898   -0.0000 C   0  0  0  0  0  0  0  0  0  0  0  0
    2.5452   -2.9615   -0.0000 C   0  0  0  0  0  0  0  0  0  0  0  0
   -2.6285    1.5343   -0.0000 O   0  0  0  0  0  0  0  0  0  0  0  0
   -3.9249   -0.7136   -0.0000 N   0  0  0  0  0  0  0  0  0  0  0  0
    5.1261    0.0714   -0.0000 O   0  0  0  0  0  0  0  0  0  0  0  0
    3.8416   -2.1884   -0.0000 C   0  0  0  0  0  0  0  0  0  0  0  0
    2.5333   -4.4482   -0.0000 C   0  0  0  0  0  0  0  0  0  0  0  0
   -5.2332    0.0476   -0.0000 C   0  0  0  0  0  0  0  0  0  0  0  0
    1.2250   -5.1856   -0.0000 O   0  0  0  0  0  0  0  0  0  0  0  0
    3.8178   -5.1856   -0.0000 O   0  0  0  0  0  0  0  0  0  0  0  0
   -6.5533   -0.6898   -0.0000 C   0  0  0  0  0  0  0  0  0  0  0  0
   -5.2451    1.5699   -0.0000 C   0  0  0  0  0  0  0  0  0  0  0  0
    1.2131   -6.6723   -0.0000 C   0  0  0  0  0  0  0  0  0  0  0  0
    3.8059   -6.6723   -0.0000 C   0  0  0  0  0  0  0  0  0  0  0  0
   -7.8616    0.0714   -0.0000 C   0  0  0  0  0  0  0  0  0  0  0  0
   -6.5652    2.3192   -0.0000 C   0  0  0  0  0  0  0  0  0  0  0  0
   -7.8735    1.5818   -0.0000 C   0  0  0  0  0  0  0  0  0  0  0  0
   -9.1818    2.3430   -0.0000 C   0  0  0  0  0  0  0  0  0  0  0  0
   -8.4563    3.6513   -0.0000 F   0  0  0  0  0  0  0  0  0  0  0  0
   -9.9549    1.0704   -0.0000 F   0  0  0  0  0  0  0  0  0  0  0  0
  -10.5020    3.1042   -0.0000 F   0  0  0  0  0  0  0  0  0  0  0  0
  1  2  1  0  0  0  0
  1  3  1  0  0  0  0
  2  4  2  0  0  0  0
  2  5  1  0  0  0  0
  3  6  1  0  0  0  0
  4  7  1  0  0  0  0
  5  8  2  0  0  0  0
  6  9  2  0  0  0  0
  6 10  1  0  0  0  0
  7 11  1  0  0  0  0
  7 12  2  0  0  0  0
  8 13  1  0  0  0  0
 10 14  1  0  0  0  0
 13 15  1  0  0  0  0
 13 16  1  0  0  0  0
 14 17  2  0  0  0  0
 14 18  1  0  0  0  0
 15 19  1  0  0  0  0
 16 20  1  0  0  0  0
 17 21  1  0  0  0  0
 18 22  2  0  0  0  0
 21 23  2  0  0  0  0
 23 24  1  0  0  0  0
 24 25  1  0  0  0  0
 24 26  1  0  0  0  0
 24 27  1  0  0  0  0
  8 12  1  0  0  0  0
 22 23  1  0  0  0  0
M  END
>  <MolRegNo>
348962

>  <m>
=

>  <Value>
4.8978e12

>  <Unit>
nM

>  <Type>
IC50

>  <Ligand Efficiency>


>  <Binding Efficiency>


>  <Surface Efficiency>


>  <Assay Index>
262926

>  <Assay Category>


>  <Assay Organism>
SARS coronavirus

>  <Target ID>
20012

>  <Target Name>
SARS coronavirus 3C-like proteinase

>  <Target Organism>
SARS coronavirus

>  <Target Description>
Target is a single protein chain

>  <Sequence Accession>
P0C6U8

>  <Reference>
J. Med. Chem. 49 (12), 3485-3495 (2006)

>  <Pubmed ID>
16759091

>  <DOI>
10.1021/jm050852f

>  <InChI-Key>
ZCGRJMKKUYGRMN-UHFFFAOYSA-N

>  <Molecular Formula>
C16H16N3O4F3S

>  <Monoisotopic Mass>
403.081361

>  <Druglikeness>
-13.46

$$$$
Compound 659
Actelion Java MolfileCreator 1.0

 27 28  0  0  0  0  0  0  0  0999 V2000
    0.0000   -0.0000   -0.0000 S   0  0  0  0  0  0  0  0  0  0  0  0
    1.2845   -0.7374   -0.0000 C   0  0  0  0  0  0  0  0  0  0  0  0
   -1.3083   -0.7374   -0.0000 C   0  0  0  0  0  0  0  0  0  0  0  0
    2.5571    0.0357   -0.0000 N   0  0  0  0  0  0  0  0  0  0  0  0
    1.2607   -2.2241   -0.0000 N   0  0  0  0  0  0  0  0  0  0  0  0
   -2.6166    0.0238   -0.0000 C   0  0  0  0  0  0  0  0  0  0  0  0
    3.8416   -0.6898   -0.0000 C   0  0  0  0  0  0  0  0  0  0  0  0
    2.5452   -2.9615   -0.0000 C   0  0  0  0  0  0  0  0  0  0  0  0
   -2.6285    1.5343   -0.0000 O   0  0  0  0  0  0  0  0  0  0  0  0
   -3.9249   -0.7136   -0.0000 N   0  0  0  0  0  0  0  0  0  0  0  0
    5.1261    0.0714   -0.0000 O   0  0  0  0  0  0  0  0  0  0  0  0
    3.8416   -2.1884   -0.0000 C   0  0  0  0  0  0  0  0  0  0  0  0
    2.5333   -4.4482   -0.0000 C   0  0  0  0  0  0  0  0  0  0  0  0
   -5.2332    0.0476   -0.0000 C   0  0  0  0  0  0  0  0  0  0  0  0
    1.2250   -5.1856   -0.0000 O   0  0  0  0  0  0  0  0  0  0  0  0
    3.8178   -5.1856   -0.0000 O   0  0  0  0  0  0  0  0  0  0  0  0
   -6.5533   -0.6898   -0.0000 C   0  0  0  0  0  0  0  0  0  0  0  0
   -5.2451    1.5699   -0.0000 C   0  0  0  0  0  0  0  0  0  0  0  0
    1.2131   -6.6723   -0.0000 C   0  0  0  0  0  0  0  0  0  0  0  0
    3.8059   -6.6723   -0.0000 C   0  0  0  0  0  0  0  0  0  0  0  0
   -7.8616    0.0714   -0.0000 C   0  0  0  0  0  0  0  0  0  0  0  0
   -6.5652    2.3192   -0.0000 C   0  0  0  0  0  0  0  0  0  0  0  0
   -7.8735    1.5818   -0.0000 C   0  0  0  0  0  0  0  0  0  0  0  0
   -9.1818    2.3430   -0.0000 C   0  0  0  0  0  0  0  0  0  0  0  0
   -8.4563    3.6513   -0.0000 F   0  0  0  0  0  0  0  0  0  0  0  0
   -9.9549    1.0704   -0.0000 F   0  0  0  0  0  0  0  0  0  0  0  0
  -10.5020    3.1042   -0.0000 F   0  0  0  0  0  0  0  0  0  0  0  0
  1  2  1  0  0  0  0
  1  3  1  0  0  0  0
  2  4  2  0  0  0  0
  2  5  1  0  0  0  0
  3  6  1  0  0  0  0
  4  7  1  0  0  0  0
  5  8  2  0  0  0  0
  6  9  2  0  0  0  0
  6 10  1  0  0  0  0
  7 11  1  0  0  0  0
  7 12  2  0  0  0  0
  8 13  1  0  0  0  0
 10 14  1  0  0  0  0
 13 15  1  0  0  0  0
 13 16  1  0  0  0  0
 14 17  2  0  0  0  0
 14 18  1  0  0  0  0
 15 19  1  0  0  0  0
 16 20  1  0  0  0  0
 17 21  1  0  0  0  0
 18 22  2  0  0  0  0
 21 23  2  0  0  0  0
 23 24  1  0  0  0  0
 24 25  1  0  0  0  0
 24 26  1  0  0  0  0
 24 27  1  0  0  0  0
  8 12  1  0  0  0  0
 22 23  1  0  0  0  0
M  END
>  <MolRegNo>
348962

>  <m>
=

>  <Value>
2.0e5

>  <Unit>
nM

>  <Type>
IC50

>  <Ligand Efficiency>


>  <Binding Efficiency>


>  <Surface Efficiency>


>  <Assay Index>
262926

>  <Assay Category>


>  <Assay Organism>
SARS coronavirus

>  <Target ID>
20012

>  <Target Name>
SARS coronavirus 3C-like proteinase

>  <Target Organism>
SARS coronavirus

>  <Target Description>
Target is a single protein chain

>  <Sequence Accession>
P0C6U8

>  <Reference>
J. Med. Chem. 49 (12), 3485-3495 (2006)

>  <Pubmed ID>
16759091

>  <DOI>
10.1021/jm050852f

>  <InChI-Key>
ZCGRJMKKUYGRMN-UHFFFAOYSA-N

>  <Molecular Formula>
C16H16N3O4F3S

>  <Monoisotopic Mass>
403.081361

>  <Druglikeness>
-13.46

$$$$
Compound 660
Actelion Java MolfileCreator 1.0

 13 13  0  0  1  0  0  0  0  0999 V2000
    0.0000   -0.0000   -0.0000 O   0  0  0  0  0  0  0  0  0  0  0  0
   -0.0118    1.5125   -0.0000 C   0  0  0  0  0  0  0  0  0  0  0  0
   -1.3235    2.2688   -0.0000 O   0  0  0  0  0  0  0  0  0  0  0  0
    1.2762    2.2806   -0.0000 C   0  0  0  0  0  0  0  0  0  0  0  0
   -1.3353    3.7814   -0.0000 C   0  0  0  0  0  0  0  0  0  0  0  0
    2.0207    3.5923   -0.0000 N   0  0  0  0  0  0  0  0  0  0  0  0
    2.7651    2.2925   -0.0000 C   0  0  0  0  0  0  0  0  0  0  0  0
   -2.6470    4.5376   -0.0000 C   0  0  0  0  0  0  0  0  0  0  0  0
    4.0413    1.5362   -0.0000 C   0  0  0  0  0  0  0  0  0  0  0  0
    4.0177    0.0473   -0.0000 O   0  0  0  0  0  0  0  0  0  0  0  0
    5.3412    2.2806   -0.0000 O   0  0  0  0  0  0  0  0  0  0  0  0
    6.6174    1.5244   -0.0000 C   0  0  0  0  0  0  0  0  0  0  0  0
    7.9172    2.2688   -0.0000 C   0  0  0  0  0  0  0  0  0  0  0  0
  1  2  2  0  0  0  0
  2  3  1  0  0  0  0
  4  2  1  1  0  0  0
  3  5  1  0  0  0  0
  4  6  1  0  0  0  0
  4  7  1  0  0  0  0
  5  8  1  0  0  0  0
  7  9  1  1  0  0  0
  9 10  2  0  0  0  0
  9 11  1  0  0  0  0
 11 12  1  0  0  0  0
 12 13  1  0  0  0  0
  6  7  1  0  0  0  0
M  END
>  <MolRegNo>
333575

>  <m>
<

>  <Value>
10

>  <Unit>
%

>  <Type>
Inhibition

>  <Ligand Efficiency>


>  <Binding Efficiency>


>  <Surface Efficiency>


>  <Assay Index>
254534

>  <Assay Category>


>  <Assay Organism>
SARS coronavirus

>  <Target ID>
20012

>  <Target Name>
SARS coronavirus 3C-like proteinase

>  <Target Organism>
SARS coronavirus

>  <Target Description>
Target is a single protein chain

>  <Sequence Accession>
P0C6U8

>  <Reference>
Bioorg. Med. Chem. Lett. 15 (24), 5365-5369 (2005)

>  <Pubmed ID>
16216498

>  <DOI>
10.1016/j.bmcl.2005.09.012

>  <InChI-Key>
ZDCRASVHGJDHRS-WDSKDSINSA-N

>  <Molecular Formula>
C8H13NO4

>  <Monoisotopic Mass>
187.084459

>  <Druglikeness>
-2.3819

$$$$
Compound 661
Actelion Java MolfileCreator 1.0

 20 22  0  0  0  0  0  0  0  0999 V2000
    0.0000   -0.0000   -0.0000 S   0  0  0  0  0  0  0  0  0  0  0  0
   -0.0118   -1.4913   -0.0000 C   0  0  0  0  0  0  0  0  0  0  0  0
   -1.3137    0.7575   -0.0000 C   0  0  0  0  0  0  0  0  0  0  0  0
    1.2782   -2.2369   -0.0000 N   0  0  0  0  0  0  0  0  0  0  0  0
   -1.3256   -2.2369   -0.0000 C   0  0  0  0  0  0  0  0  0  0  0  0
    1.2664   -3.7282   -0.0000 C   0  0  0  0  0  0  0  0  0  0  0  0
   -2.7695   -1.7635   -0.0000 N   0  0  0  0  0  0  0  0  0  0  0  0
   -1.3374   -3.7282   -0.0000 C   0  0  0  0  0  0  0  0  0  0  0  0
   -0.0473   -4.4620   -0.0000 N   0  0  0  0  0  0  0  0  0  0  0  0
   -3.6690   -2.9707   -0.0000 C   0  0  0  0  0  0  0  0  0  0  0  0
   -2.7814   -4.1779   -0.0000 N   0  0  0  0  0  0  0  0  0  0  0  0
   -3.2548   -5.5982   -0.0000 C   0  0  0  0  0  0  0  0  0  0  0  0
   -4.6987   -6.0480   -0.0000 O   0  0  0  0  0  0  0  0  0  0  0  0
   -2.3789   -6.8054   -0.0000 C   0  0  0  0  0  0  0  0  0  0  0  0
   -4.7105   -7.5392   -0.0000 C   0  0  0  0  0  0  0  0  0  0  0  0
   -0.8877   -6.7936   -0.0000 O   0  0  0  0  0  0  0  0  0  0  0  0
   -3.2784   -8.0127   -0.0000 C   0  0  0  0  0  0  0  0  0  0  0  0
   -5.9414   -8.4151   -0.0000 C   0  0  0  0  0  0  0  0  0  0  0  0
   -2.8287   -9.4329   -0.0000 O   0  0  0  0  0  0  0  0  0  0  0  0
   -5.7994   -9.8945   -0.0000 O   0  0  0  0  0  0  0  0  0  0  0  0
  1  2  1  0  0  0  0
  1  3  1  0  0  0  0
  2  4  2  0  0  0  0
  2  5  1  0  0  0  0
  4  6  1  0  0  0  0
  5  7  1  0  0  0  0
  5  8  2  0  0  0  0
  6  9  2  0  0  0  0
  7 10  2  0  0  0  0
  8 11  1  0  0  0  0
 12 11  1  6  0  0  0
 12 13  1  0  0  0  0
 12 14  1  0  0  0  0
 13 15  1  0  0  0  0
 14 16  1  1  0  0  0
 14 17  1  0  0  0  0
 15 18  1  6  0  0  0
 17 19  1  1  0  0  0
 18 20  1  0  0  0  0
  8  9  1  0  0  0  0
 10 11  1  0  0  0  0
 15 17  1  0  0  0  0
M  END
>  <MolRegNo>
386742

>  <m>
>

>  <Value>
3.0e5

>  <Unit>
nM

>  <Type>
IC50

>  <Ligand Efficiency>


>  <Binding Efficiency>


>  <Surface Efficiency>


>  <Assay Index>
287336

>  <Assay Category>


>  <Assay Organism>
SARS coronavirus

>  <Target ID>
100499

>  <Target Name>
SARS coronavirus

>  <Target Organism>
SARS coronavirus

>  <Target Description>
Target is a complete organism

>  <Sequence Accession>


>  <Reference>
Bioorg. Med. Chem. Lett. 17 (9), 2470-2473 (2007)

>  <Pubmed ID>
17336519

>  <DOI>
10.1016/j.bmcl.2007.02.026

>  <InChI-Key>
ZDRFDHHANOYUTE-GIDNPQMSSA-N

>  <Molecular Formula>
C11H14N4O4S

>  <Monoisotopic Mass>
298.073576

>  <Druglikeness>
-0.6589

$$$$
Compound 662
Actelion Java MolfileCreator 1.0

 19 21  0  0  0  0  0  0  0  0999 V2000
    0.0000   -0.0000   -0.0000 S   0  0  0  0  0  0  0  0  0  0  0  0
   -1.2113   -0.8669   -0.0000 C   0  0  0  0  0  0  0  0  0  0  0  0
   -0.4750    1.4369   -0.0000 C   0  0  0  0  0  0  0  0  0  0  0  0
   -2.4463    0.0119   -0.0000 N   0  0  0  0  0  0  0  0  0  0  0  0
   -1.2232   -2.3513   -0.0000 C   0  0  0  0  0  0  0  0  0  0  0  0
   -1.9832    1.4488   -0.0000 C   0  0  0  0  0  0  0  0  0  0  0  0
   -3.8832   -0.4513   -0.0000 C   0  0  0  0  0  0  0  0  0  0  0  0
   -2.5294   -3.0876   -0.0000 C   0  0  0  0  0  0  0  0  0  0  0  0
    0.0594   -3.0876   -0.0000 C   0  0  0  0  0  0  0  0  0  0  0  0
   -2.8738    2.6719   -0.0000 O   0  0  0  0  0  0  0  0  0  0  0  0
   -5.0114    0.5581   -0.0000 N   0  0  0  0  0  0  0  0  0  0  0  0
   -4.1920   -1.9000   -0.0000 C   0  0  0  0  0  0  0  0  0  0  0  0
   -2.5413   -4.5839   -0.0000 C   0  0  0  0  0  0  0  0  0  0  0  0
    0.0475   -4.5839   -0.0000 C   0  0  0  0  0  0  0  0  0  0  0  0
   -6.4483    0.0950   -0.0000 C   0  0  0  0  0  0  0  0  0  0  0  0
   -5.6170   -2.3632   -0.0000 C   0  0  0  0  0  0  0  0  0  0  0  0
   -1.2588   -5.3201   -0.0000 C   0  0  0  0  0  0  0  0  0  0  0  0
   -6.7689   -1.3657   -0.0000 C   0  0  0  0  0  0  0  0  0  0  0  0
   -1.2707   -6.8045   -0.0000 F   0  0  0  0  0  0  0  0  0  0  0  0
  1  2  1  0  0  0  0
  1  3  1  0  0  0  0
  2  4  1  0  0  0  0
  2  5  1  0  0  0  0
  3  6  1  0  0  0  0
  4  7  1  0  0  0  0
  5  8  2  0  0  0  0
  5  9  1  0  0  0  0
  6 10  2  0  0  0  0
  7 11  2  0  0  0  0
  7 12  1  0  0  0  0
  8 13  1  0  0  0  0
  9 14  2  0  0  0  0
 11 15  1  0  0  0  0
 12 16  2  0  0  0  0
 13 17  2  0  0  0  0
 15 18  2  0  0  0  0
 17 19  1  0  0  0  0
  4  6  1  0  0  0  0
 14 17  1  0  0  0  0
 16 18  1  0  0  0  0
M  END
>  <MolRegNo>
452792

>  <m>
<=

>  <Value>
50

>  <Unit>
%

>  <Type>
Inhibition

>  <Ligand Efficiency>


>  <Binding Efficiency>


>  <Surface Efficiency>


>  <Assay Index>
406904

>  <Assay Category>


>  <Assay Organism>
SARS coronavirus

>  <Target ID>
101075

>  <Target Name>
Replicase polyprotein 1ab

>  <Target Organism>
SARS coronavirus

>  <Target Description>
Target is a single protein chain

>  <Sequence Accession>
P0C6X7

>  <Reference>
Bioorg. Med. Chem. Lett. 18 (23), 6110-6114 (2008)

>  <Pubmed ID>
18947995

>  <DOI>
10.1016/j.bmcl.2008.10.023

>  <InChI-Key>
ZGNRNMZSQXWABI-UHFFFAOYSA-N

>  <Molecular Formula>
C14H11N2OFS

>  <Monoisotopic Mass>
274.057611

>  <Druglikeness>
1.4724

$$$$
Compound 663
Actelion Java MolfileCreator 1.0

 16 16  0  0  1  0  0  0  0  0999 V2000
    0.0000   -0.0000   -0.0000 S   0  0  0  0  0  0  0  0  0  0  0  0
   -1.3146   -0.7343   -0.0000 C   0  0  0  0  0  0  0  0  0  0  0  0
    1.2909   -0.7343   -0.0000 C   0  0  0  0  0  0  0  0  0  0  0  0
   -2.6292    0.0237   -0.0000 C   0  0  0  0  0  0  0  0  0  0  0  0
   -3.9438   -0.7106   -0.0000 C   0  0  0  0  0  0  0  0  0  0  0  0
   -3.9556   -2.2028   -0.0000 N   0  0  0  0  0  0  0  0  0  0  0  0
   -5.2584    0.0474   -0.0000 C   0  0  0  0  0  0  0  0  0  0  0  0
   -3.2213   -3.4937   -0.0000 C   0  0  0  0  0  0  0  0  0  0  0  0
   -4.7136   -3.4937   -0.0000 C   0  0  0  0  0  0  0  0  0  0  0  0
   -6.5730   -0.6987   -0.0000 O   0  0  0  0  0  0  0  0  0  0  0  0
   -5.2702    1.5633   -0.0000 O   0  0  0  0  0  0  0  0  0  0  0  0
   -1.9304   -4.2398   -0.0000 C   0  0  0  0  0  0  0  0  0  0  0  0
   -3.9793    2.3331   -0.0000 C   0  0  0  0  0  0  0  0  0  0  0  0
   -1.9423   -5.7321   -0.0000 O   0  0  0  0  0  0  0  0  0  0  0  0
   -0.6395   -3.4819   -0.0000 O   0  0  0  0  0  0  0  0  0  0  0  0
    0.6514   -4.2280   -0.0000 C   0  0  0  0  0  0  0  0  0  0  0  0
  1  2  1  0  0  0  0
  1  3  1  0  0  0  0
  2  4  1  0  0  0  0
  4  5  1  0  0  0  0
  5  6  1  6  0  0  0
  5  7  1  0  0  0  0
  6  8  1  0  0  0  0
  6  9  1  0  0  0  0
  7 10  2  0  0  0  0
  7 11  1  0  0  0  0
  8 12  1  0  0  0  0
 11 13  1  0  0  0  0
 12 14  2  0  0  0  0
 12 15  1  0  0  0  0
 15 16  1  0  0  0  0
  8  9  1  0  0  0  0
M  END
>  <MolRegNo>
333673

>  <m>
=

>  <Value>
28

>  <Unit>
%

>  <Type>
Inhibition

>  <Ligand Efficiency>


>  <Binding Efficiency>


>  <Surface Efficiency>


>  <Assay Index>
254531

>  <Assay Category>


>  <Assay Organism>
SARS coronavirus

>  <Target ID>
20012

>  <Target Name>
SARS coronavirus 3C-like proteinase

>  <Target Organism>
SARS coronavirus

>  <Target Description>
Target is a single protein chain

>  <Sequence Accession>
P0C6U8

>  <Reference>
Bioorg. Med. Chem. Lett. 15 (24), 5365-5369 (2005)

>  <Pubmed ID>
16216498

>  <DOI>
10.1016/j.bmcl.2005.09.012

>  <InChI-Key>
ZIPXNNMYQJPRQH-JYPKXMCJSA-N

>  <Molecular Formula>
C10H17NO4S

>  <Monoisotopic Mass>
247.087829

>  <Druglikeness>
0.68125

$$$$
Compound 664
Actelion Java MolfileCreator 1.0

 27 28  0  0  0  0  0  0  0  0999 V2000
    0.0000   -0.0000   -0.0000 O   0  0  0  0  0  0  0  0  0  0  0  0
   -0.0119   -1.4904   -0.0000 C   0  0  0  0  0  0  0  0  0  0  0  0
    1.2758   -2.2296   -0.0000 C   0  0  0  0  0  0  0  0  0  0  0  0
   -1.3235   -2.2296   -0.0000 C   0  0  0  0  0  0  0  0  0  0  0  0
    2.5635   -1.4666   -0.0000 C   0  0  0  0  0  0  0  0  0  0  0  0
   -2.6350   -1.4666   -0.0000 C   0  0  0  0  0  0  0  0  0  0  0  0
    2.5516    0.0477   -0.0000 O   0  0  0  0  0  0  0  0  0  0  0  0
    3.8512   -2.2058   -0.0000 C   0  0  0  0  0  0  0  0  0  0  0  0
   -3.9466   -2.2058   -0.0000 C   0  0  0  0  0  0  0  0  0  0  0  0
    5.1389   -1.4427   -0.0000 C   0  0  0  0  0  0  0  0  0  0  0  0
   -5.2581   -1.4427   -0.0000 C   0  0  0  0  0  0  0  0  0  0  0  0
   -3.9585   -3.7081   -0.0000 C   0  0  0  0  0  0  0  0  0  0  0  0
    6.4266   -2.1819   -0.0000 C   0  0  0  0  0  0  0  0  0  0  0  0
   -6.5697   -2.1819   -0.0000 C   0  0  0  0  0  0  0  0  0  0  0  0
   -5.2820   -4.4474   -0.0000 C   0  0  0  0  0  0  0  0  0  0  0  0
    7.7024   -1.4069   -0.0000 C   0  0  0  0  0  0  0  0  0  0  0  0
    6.4147   -3.6723   -0.0000 C   0  0  0  0  0  0  0  0  0  0  0  0
   -7.8812   -1.4189   -0.0000 O   0  0  0  0  0  0  0  0  0  0  0  0
   -6.5816   -3.6843   -0.0000 C   0  0  0  0  0  0  0  0  0  0  0  0
    8.9901   -2.1343   -0.0000 C   0  0  0  0  0  0  0  0  0  0  0  0
    7.7024   -4.4116   -0.0000 C   0  0  0  0  0  0  0  0  0  0  0  0
   -9.1928   -2.1581   -0.0000 C   0  0  0  0  0  0  0  0  0  0  0  0
   -7.8932   -4.4235   -0.0000 O   0  0  0  0  0  0  0  0  0  0  0  0
   10.2778   -1.3592   -0.0000 O   0  0  0  0  0  0  0  0  0  0  0  0
    8.9901   -3.6366   -0.0000 C   0  0  0  0  0  0  0  0  0  0  0  0
   11.5774   -2.0866   -0.0000 C   0  0  0  0  0  0  0  0  0  0  0  0
   10.2897   -4.3758   -0.0000 O   0  0  0  0  0  0  0  0  0  0  0  0
  1  2  2  0  0  0  0
  2  3  1  0  0  0  0
  2  4  1  0  0  0  0
  3  5  2  0  0  0  0
  4  6  2  0  0  0  0
  5  7  1  0  0  0  0
  5  8  1  0  0  0  0
  6  9  1  0  0  0  0
  8 10  2  0  0  0  0
  9 11  2  0  0  0  0
  9 12  1  0  0  0  0
 10 13  1  0  0  0  0
 11 14  1  0  0  0  0
 12 15  2  0  0  0  0
 13 16  2  0  0  0  0
 13 17  1  0  0  0  0
 14 18  1  0  0  0  0
 14 19  2  0  0  0  0
 16 20  1  0  0  0  0
 17 21  2  0  0  0  0
 18 22  1  0  0  0  0
 19 23  1  0  0  0  0
 20 24  1  0  0  0  0
 20 25  2  0  0  0  0
 24 26  1  0  0  0  0
 25 27  1  0  0  0  0
 15 19  1  0  0  0  0
 21 25  1  0  0  0  0
M  END
>  <MolRegNo>
190171

>  <m>


>  <Value>
0

>  <Unit>


>  <Type>
Activity

>  <Ligand Efficiency>


>  <Binding Efficiency>


>  <Surface Efficiency>


>  <Assay Index>
294025

>  <Assay Category>


>  <Assay Organism>
SARS coronavirus

>  <Target ID>
100499

>  <Target Name>
SARS coronavirus

>  <Target Organism>
SARS coronavirus

>  <Target Description>
Target is a complete organism

>  <Sequence Accession>


>  <Reference>
J. Med. Chem. 50 (17), 4087-4095 (2007)

>  <Pubmed ID>
17663539

>  <DOI>
10.1021/jm070295s

>  <InChI-Key>
ZIUSSTSXXLLKKK-UHFFFAOYSA-N

>  <Molecular Formula>
C21H20O6

>  <Monoisotopic Mass>
368.125990

>  <Druglikeness>
1.178

$$$$
Compound 665
Actelion Java MolfileCreator 1.0

 27 28  0  0  0  0  0  0  0  0999 V2000
    0.0000   -0.0000   -0.0000 O   0  0  0  0  0  0  0  0  0  0  0  0
   -0.0119   -1.4904   -0.0000 C   0  0  0  0  0  0  0  0  0  0  0  0
    1.2758   -2.2296   -0.0000 C   0  0  0  0  0  0  0  0  0  0  0  0
   -1.3235   -2.2296   -0.0000 C   0  0  0  0  0  0  0  0  0  0  0  0
    2.5635   -1.4666   -0.0000 C   0  0  0  0  0  0  0  0  0  0  0  0
   -2.6350   -1.4666   -0.0000 C   0  0  0  0  0  0  0  0  0  0  0  0
    2.5516    0.0477   -0.0000 O   0  0  0  0  0  0  0  0  0  0  0  0
    3.8512   -2.2058   -0.0000 C   0  0  0  0  0  0  0  0  0  0  0  0
   -3.9466   -2.2058   -0.0000 C   0  0  0  0  0  0  0  0  0  0  0  0
    5.1389   -1.4427   -0.0000 C   0  0  0  0  0  0  0  0  0  0  0  0
   -5.2581   -1.4427   -0.0000 C   0  0  0  0  0  0  0  0  0  0  0  0
   -3.9585   -3.7081   -0.0000 C   0  0  0  0  0  0  0  0  0  0  0  0
    6.4266   -2.1819   -0.0000 C   0  0  0  0  0  0  0  0  0  0  0  0
   -6.5697   -2.1819   -0.0000 C   0  0  0  0  0  0  0  0  0  0  0  0
   -5.2820   -4.4474   -0.0000 C   0  0  0  0  0  0  0  0  0  0  0  0
    7.7024   -1.4069   -0.0000 C   0  0  0  0  0  0  0  0  0  0  0  0
    6.4147   -3.6723   -0.0000 C   0  0  0  0  0  0  0  0  0  0  0  0
   -7.8812   -1.4189   -0.0000 O   0  0  0  0  0  0  0  0  0  0  0  0
   -6.5816   -3.6843   -0.0000 C   0  0  0  0  0  0  0  0  0  0  0  0
    8.9901   -2.1343   -0.0000 C   0  0  0  0  0  0  0  0  0  0  0  0
    7.7024   -4.4116   -0.0000 C   0  0  0  0  0  0  0  0  0  0  0  0
   -9.1928   -2.1581   -0.0000 C   0  0  0  0  0  0  0  0  0  0  0  0
   -7.8932   -4.4235   -0.0000 O   0  0  0  0  0  0  0  0  0  0  0  0
   10.2778   -1.3592   -0.0000 O   0  0  0  0  0  0  0  0  0  0  0  0
    8.9901   -3.6366   -0.0000 C   0  0  0  0  0  0  0  0  0  0  0  0
   11.5774   -2.0866   -0.0000 C   0  0  0  0  0  0  0  0  0  0  0  0
   10.2897   -4.3758   -0.0000 O   0  0  0  0  0  0  0  0  0  0  0  0
  1  2  2  0  0  0  0
  2  3  1  0  0  0  0
  2  4  1  0  0  0  0
  3  5  2  0  0  0  0
  4  6  2  0  0  0  0
  5  7  1  0  0  0  0
  5  8  1  0  0  0  0
  6  9  1  0  0  0  0
  8 10  2  0  0  0  0
  9 11  2  0  0  0  0
  9 12  1  0  0  0  0
 10 13  1  0  0  0  0
 11 14  1  0  0  0  0
 12 15  2  0  0  0  0
 13 16  2  0  0  0  0
 13 17  1  0  0  0  0
 14 18  1  0  0  0  0
 14 19  2  0  0  0  0
 16 20  1  0  0  0  0
 17 21  2  0  0  0  0
 18 22  1  0  0  0  0
 19 23  1  0  0  0  0
 20 24  1  0  0  0  0
 20 25  2  0  0  0  0
 24 26  1  0  0  0  0
 25 27  1  0  0  0  0
 15 19  1  0  0  0  0
 21 25  1  0  0  0  0
M  END
>  <MolRegNo>
190171

>  <m>


>  <Value>
0

>  <Unit>


>  <Type>
Activity

>  <Ligand Efficiency>


>  <Binding Efficiency>


>  <Surface Efficiency>


>  <Assay Index>
294024

>  <Assay Category>


>  <Assay Organism>
SARS coronavirus

>  <Target ID>
100499

>  <Target Name>
SARS coronavirus

>  <Target Organism>
SARS coronavirus

>  <Target Description>
Target is a complete organism

>  <Sequence Accession>


>  <Reference>
J. Med. Chem. 50 (17), 4087-4095 (2007)

>  <Pubmed ID>
17663539

>  <DOI>
10.1021/jm070295s

>  <InChI-Key>
ZIUSSTSXXLLKKK-UHFFFAOYSA-N

>  <Molecular Formula>
C21H20O6

>  <Monoisotopic Mass>
368.125990

>  <Druglikeness>
1.178

$$$$
Compound 666
Actelion Java MolfileCreator 1.0

 27 28  0  0  0  0  0  0  0  0999 V2000
    0.0000   -0.0000   -0.0000 O   0  0  0  0  0  0  0  0  0  0  0  0
   -0.0119   -1.4904   -0.0000 C   0  0  0  0  0  0  0  0  0  0  0  0
    1.2758   -2.2296   -0.0000 C   0  0  0  0  0  0  0  0  0  0  0  0
   -1.3235   -2.2296   -0.0000 C   0  0  0  0  0  0  0  0  0  0  0  0
    2.5635   -1.4666   -0.0000 C   0  0  0  0  0  0  0  0  0  0  0  0
   -2.6350   -1.4666   -0.0000 C   0  0  0  0  0  0  0  0  0  0  0  0
    2.5516    0.0477   -0.0000 O   0  0  0  0  0  0  0  0  0  0  0  0
    3.8512   -2.2058   -0.0000 C   0  0  0  0  0  0  0  0  0  0  0  0
   -3.9466   -2.2058   -0.0000 C   0  0  0  0  0  0  0  0  0  0  0  0
    5.1389   -1.4427   -0.0000 C   0  0  0  0  0  0  0  0  0  0  0  0
   -5.2581   -1.4427   -0.0000 C   0  0  0  0  0  0  0  0  0  0  0  0
   -3.9585   -3.7081   -0.0000 C   0  0  0  0  0  0  0  0  0  0  0  0
    6.4266   -2.1819   -0.0000 C   0  0  0  0  0  0  0  0  0  0  0  0
   -6.5697   -2.1819   -0.0000 C   0  0  0  0  0  0  0  0  0  0  0  0
   -5.2820   -4.4474   -0.0000 C   0  0  0  0  0  0  0  0  0  0  0  0
    7.7024   -1.4069   -0.0000 C   0  0  0  0  0  0  0  0  0  0  0  0
    6.4147   -3.6723   -0.0000 C   0  0  0  0  0  0  0  0  0  0  0  0
   -7.8812   -1.4189   -0.0000 O   0  0  0  0  0  0  0  0  0  0  0  0
   -6.5816   -3.6843   -0.0000 C   0  0  0  0  0  0  0  0  0  0  0  0
    8.9901   -2.1343   -0.0000 C   0  0  0  0  0  0  0  0  0  0  0  0
    7.7024   -4.4116   -0.0000 C   0  0  0  0  0  0  0  0  0  0  0  0
   -9.1928   -2.1581   -0.0000 C   0  0  0  0  0  0  0  0  0  0  0  0
   -7.8932   -4.4235   -0.0000 O   0  0  0  0  0  0  0  0  0  0  0  0
   10.2778   -1.3592   -0.0000 O   0  0  0  0  0  0  0  0  0  0  0  0
    8.9901   -3.6366   -0.0000 C   0  0  0  0  0  0  0  0  0  0  0  0
   11.5774   -2.0866   -0.0000 C   0  0  0  0  0  0  0  0  0  0  0  0
   10.2897   -4.3758   -0.0000 O   0  0  0  0  0  0  0  0  0  0  0  0
  1  2  2  0  0  0  0
  2  3  1  0  0  0  0
  2  4  1  0  0  0  0
  3  5  2  0  0  0  0
  4  6  2  0  0  0  0
  5  7  1  0  0  0  0
  5  8  1  0  0  0  0
  6  9  1  0  0  0  0
  8 10  2  0  0  0  0
  9 11  2  0  0  0  0
  9 12  1  0  0  0  0
 10 13  1  0  0  0  0
 11 14  1  0  0  0  0
 12 15  2  0  0  0  0
 13 16  2  0  0  0  0
 13 17  1  0  0  0  0
 14 18  1  0  0  0  0
 14 19  2  0  0  0  0
 16 20  1  0  0  0  0
 17 21  2  0  0  0  0
 18 22  1  0  0  0  0
 19 23  1  0  0  0  0
 20 24  1  0  0  0  0
 20 25  2  0  0  0  0
 24 26  1  0  0  0  0
 25 27  1  0  0  0  0
 15 19  1  0  0  0  0
 21 25  1  0  0  0  0
M  END
>  <MolRegNo>
190171

>  <m>
>

>  <Value>
10000

>  <Unit>
nM

>  <Type>
EC50

>  <Ligand Efficiency>


>  <Binding Efficiency>


>  <Surface Efficiency>


>  <Assay Index>
294026

>  <Assay Category>


>  <Assay Organism>
SARS coronavirus

>  <Target ID>
100499

>  <Target Name>
SARS coronavirus

>  <Target Organism>
SARS coronavirus

>  <Target Description>
Target is a complete organism

>  <Sequence Accession>


>  <Reference>
J. Med. Chem. 50 (17), 4087-4095 (2007)

>  <Pubmed ID>
17663539

>  <DOI>
10.1021/jm070295s

>  <InChI-Key>
ZIUSSTSXXLLKKK-UHFFFAOYSA-N

>  <Molecular Formula>
C21H20O6

>  <Monoisotopic Mass>
368.125990

>  <Druglikeness>
1.178

$$$$
Compound 667
Actelion Java MolfileCreator 1.0

 27 28  0  0  0  0  0  0  0  0999 V2000
    0.0000   -0.0000   -0.0000 O   0  0  0  0  0  0  0  0  0  0  0  0
   -0.0119   -1.4904   -0.0000 C   0  0  0  0  0  0  0  0  0  0  0  0
    1.2758   -2.2296   -0.0000 C   0  0  0  0  0  0  0  0  0  0  0  0
   -1.3235   -2.2296   -0.0000 C   0  0  0  0  0  0  0  0  0  0  0  0
    2.5635   -1.4666   -0.0000 C   0  0  0  0  0  0  0  0  0  0  0  0
   -2.6350   -1.4666   -0.0000 C   0  0  0  0  0  0  0  0  0  0  0  0
    2.5516    0.0477   -0.0000 O   0  0  0  0  0  0  0  0  0  0  0  0
    3.8512   -2.2058   -0.0000 C   0  0  0  0  0  0  0  0  0  0  0  0
   -3.9466   -2.2058   -0.0000 C   0  0  0  0  0  0  0  0  0  0  0  0
    5.1389   -1.4427   -0.0000 C   0  0  0  0  0  0  0  0  0  0  0  0
   -5.2581   -1.4427   -0.0000 C   0  0  0  0  0  0  0  0  0  0  0  0
   -3.9585   -3.7081   -0.0000 C   0  0  0  0  0  0  0  0  0  0  0  0
    6.4266   -2.1819   -0.0000 C   0  0  0  0  0  0  0  0  0  0  0  0
   -6.5697   -2.1819   -0.0000 C   0  0  0  0  0  0  0  0  0  0  0  0
   -5.2820   -4.4474   -0.0000 C   0  0  0  0  0  0  0  0  0  0  0  0
    7.7024   -1.4069   -0.0000 C   0  0  0  0  0  0  0  0  0  0  0  0
    6.4147   -3.6723   -0.0000 C   0  0  0  0  0  0  0  0  0  0  0  0
   -7.8812   -1.4189   -0.0000 O   0  0  0  0  0  0  0  0  0  0  0  0
   -6.5816   -3.6843   -0.0000 C   0  0  0  0  0  0  0  0  0  0  0  0
    8.9901   -2.1343   -0.0000 C   0  0  0  0  0  0  0  0  0  0  0  0
    7.7024   -4.4116   -0.0000 C   0  0  0  0  0  0  0  0  0  0  0  0
   -9.1928   -2.1581   -0.0000 C   0  0  0  0  0  0  0  0  0  0  0  0
   -7.8932   -4.4235   -0.0000 O   0  0  0  0  0  0  0  0  0  0  0  0
   10.2778   -1.3592   -0.0000 O   0  0  0  0  0  0  0  0  0  0  0  0
    8.9901   -3.6366   -0.0000 C   0  0  0  0  0  0  0  0  0  0  0  0
   11.5774   -2.0866   -0.0000 C   0  0  0  0  0  0  0  0  0  0  0  0
   10.2897   -4.3758   -0.0000 O   0  0  0  0  0  0  0  0  0  0  0  0
  1  2  2  0  0  0  0
  2  3  1  0  0  0  0
  2  4  1  0  0  0  0
  3  5  2  0  0  0  0
  4  6  2  0  0  0  0
  5  7  1  0  0  0  0
  5  8  1  0  0  0  0
  6  9  1  0  0  0  0
  8 10  2  0  0  0  0
  9 11  2  0  0  0  0
  9 12  1  0  0  0  0
 10 13  1  0  0  0  0
 11 14  1  0  0  0  0
 12 15  2  0  0  0  0
 13 16  2  0  0  0  0
 13 17  1  0  0  0  0
 14 18  1  0  0  0  0
 14 19  2  0  0  0  0
 16 20  1  0  0  0  0
 17 21  2  0  0  0  0
 18 22  1  0  0  0  0
 19 23  1  0  0  0  0
 20 24  1  0  0  0  0
 20 25  2  0  0  0  0
 24 26  1  0  0  0  0
 25 27  1  0  0  0  0
 15 19  1  0  0  0  0
 21 25  1  0  0  0  0
M  END
>  <MolRegNo>
190171

>  <m>
=

>  <Value>
50

>  <Unit>
%

>  <Type>
Inhibition

>  <Ligand Efficiency>


>  <Binding Efficiency>


>  <Surface Efficiency>


>  <Assay Index>
294023

>  <Assay Category>


>  <Assay Organism>
SARS coronavirus

>  <Target ID>
100499

>  <Target Name>
SARS coronavirus

>  <Target Organism>
SARS coronavirus

>  <Target Description>
Target is a complete organism

>  <Sequence Accession>


>  <Reference>
J. Med. Chem. 50 (17), 4087-4095 (2007)

>  <Pubmed ID>
17663539

>  <DOI>
10.1021/jm070295s

>  <InChI-Key>
ZIUSSTSXXLLKKK-UHFFFAOYSA-N

>  <Molecular Formula>
C21H20O6

>  <Monoisotopic Mass>
368.125990

>  <Druglikeness>
1.178

$$$$
Compound 668
Actelion Java MolfileCreator 1.0

 27 28  0  0  0  0  0  0  0  0999 V2000
    0.0000   -0.0000   -0.0000 O   0  0  0  0  0  0  0  0  0  0  0  0
   -0.0119   -1.4904   -0.0000 C   0  0  0  0  0  0  0  0  0  0  0  0
    1.2758   -2.2296   -0.0000 C   0  0  0  0  0  0  0  0  0  0  0  0
   -1.3235   -2.2296   -0.0000 C   0  0  0  0  0  0  0  0  0  0  0  0
    2.5635   -1.4666   -0.0000 C   0  0  0  0  0  0  0  0  0  0  0  0
   -2.6350   -1.4666   -0.0000 C   0  0  0  0  0  0  0  0  0  0  0  0
    2.5516    0.0477   -0.0000 O   0  0  0  0  0  0  0  0  0  0  0  0
    3.8512   -2.2058   -0.0000 C   0  0  0  0  0  0  0  0  0  0  0  0
   -3.9466   -2.2058   -0.0000 C   0  0  0  0  0  0  0  0  0  0  0  0
    5.1389   -1.4427   -0.0000 C   0  0  0  0  0  0  0  0  0  0  0  0
   -5.2581   -1.4427   -0.0000 C   0  0  0  0  0  0  0  0  0  0  0  0
   -3.9585   -3.7081   -0.0000 C   0  0  0  0  0  0  0  0  0  0  0  0
    6.4266   -2.1819   -0.0000 C   0  0  0  0  0  0  0  0  0  0  0  0
   -6.5697   -2.1819   -0.0000 C   0  0  0  0  0  0  0  0  0  0  0  0
   -5.2820   -4.4474   -0.0000 C   0  0  0  0  0  0  0  0  0  0  0  0
    7.7024   -1.4069   -0.0000 C   0  0  0  0  0  0  0  0  0  0  0  0
    6.4147   -3.6723   -0.0000 C   0  0  0  0  0  0  0  0  0  0  0  0
   -7.8812   -1.4189   -0.0000 O   0  0  0  0  0  0  0  0  0  0  0  0
   -6.5816   -3.6843   -0.0000 C   0  0  0  0  0  0  0  0  0  0  0  0
    8.9901   -2.1343   -0.0000 C   0  0  0  0  0  0  0  0  0  0  0  0
    7.7024   -4.4116   -0.0000 C   0  0  0  0  0  0  0  0  0  0  0  0
   -9.1928   -2.1581   -0.0000 C   0  0  0  0  0  0  0  0  0  0  0  0
   -7.8932   -4.4235   -0.0000 O   0  0  0  0  0  0  0  0  0  0  0  0
   10.2778   -1.3592   -0.0000 O   0  0  0  0  0  0  0  0  0  0  0  0
    8.9901   -3.6366   -0.0000 C   0  0  0  0  0  0  0  0  0  0  0  0
   11.5774   -2.0866   -0.0000 C   0  0  0  0  0  0  0  0  0  0  0  0
   10.2897   -4.3758   -0.0000 O   0  0  0  0  0  0  0  0  0  0  0  0
  1  2  2  0  0  0  0
  2  3  1  0  0  0  0
  2  4  1  0  0  0  0
  3  5  2  0  0  0  0
  4  6  2  0  0  0  0
  5  7  1  0  0  0  0
  5  8  1  0  0  0  0
  6  9  1  0  0  0  0
  8 10  2  0  0  0  0
  9 11  2  0  0  0  0
  9 12  1  0  0  0  0
 10 13  1  0  0  0  0
 11 14  1  0  0  0  0
 12 15  2  0  0  0  0
 13 16  2  0  0  0  0
 13 17  1  0  0  0  0
 14 18  1  0  0  0  0
 14 19  2  0  0  0  0
 16 20  1  0  0  0  0
 17 21  2  0  0  0  0
 18 22  1  0  0  0  0
 19 23  1  0  0  0  0
 20 24  1  0  0  0  0
 20 25  2  0  0  0  0
 24 26  1  0  0  0  0
 25 27  1  0  0  0  0
 15 19  1  0  0  0  0
 21 25  1  0  0  0  0
M  END
>  <MolRegNo>
190171

>  <m>
=

>  <Value>
25

>  <Unit>
%

>  <Type>
Inhibition

>  <Ligand Efficiency>


>  <Binding Efficiency>


>  <Surface Efficiency>


>  <Assay Index>
294022

>  <Assay Category>


>  <Assay Organism>
SARS coronavirus

>  <Target ID>
100499

>  <Target Name>
SARS coronavirus

>  <Target Organism>
SARS coronavirus

>  <Target Description>
Target is a complete organism

>  <Sequence Accession>


>  <Reference>
J. Med. Chem. 50 (17), 4087-4095 (2007)

>  <Pubmed ID>
17663539

>  <DOI>
10.1021/jm070295s

>  <InChI-Key>
ZIUSSTSXXLLKKK-UHFFFAOYSA-N

>  <Molecular Formula>
C21H20O6

>  <Monoisotopic Mass>
368.125990

>  <Druglikeness>
1.178

$$$$
Compound 669
Actelion Java MolfileCreator 1.0

 35 38  0  0  0  0  0  0  0  0999 V2000
    0.0000   -0.0000   -0.0000 Cl  0  0  0  0  0  0  0  0  0  0  0  0
   -0.0124   -1.2556   -0.0000 C   0  0  0  0  0  0  0  0  0  0  0  0
   -1.3924   -2.0264   -0.0000 C   0  0  0  0  0  0  0  0  0  0  0  0
    1.3426   -2.0264   -0.0000 C   0  0  0  0  0  0  0  0  0  0  0  0
   -1.4048   -3.5928   -0.0000 C   0  0  0  0  0  0  0  0  0  0  0  0
    1.3302   -3.5928   -0.0000 C   0  0  0  0  0  0  0  0  0  0  0  0
   -0.0497   -4.3635   -0.0000 C   0  0  0  0  0  0  0  0  0  0  0  0
   -2.7847   -4.3635   -0.0000 C   0  0  0  0  0  0  0  0  0  0  0  0
   -0.0622   -5.9299   -0.0000 C   0  0  0  0  0  0  0  0  0  0  0  0
   -4.2144   -3.7047   -0.0000 O   0  0  0  0  0  0  0  0  0  0  0  0
   -2.9339   -5.9051   -0.0000 C   0  0  0  0  0  0  0  0  0  0  0  0
    1.0194   -6.5515   -0.0000 O   0  0  0  0  0  0  0  0  0  0  0  0
   -1.1686   -6.5515   -0.0000 O   0  0  0  0  0  0  0  0  0  0  0  0
   -5.2835   -4.8608   -0.0000 C   0  0  0  0  0  0  0  0  0  0  0  0
   -4.4878   -6.2283   -0.0000 C   0  0  0  0  0  0  0  0  0  0  0  0
   -6.8623   -4.6868   -0.0000 C   0  0  0  0  0  0  0  0  0  0  0  0
   -7.7947   -5.9548   -0.0000 C   0  0  0  0  0  0  0  0  0  0  0  0
   -7.3098   -7.4217   -0.0000 C   0  0  0  0  0  0  0  0  0  0  0  0
   -9.3735   -5.9299   -0.0000 C   0  0  0  0  0  0  0  0  0  0  0  0
   -6.1164   -7.7947   -0.0000 O   0  0  0  0  0  0  0  0  0  0  0  0
   -8.6027   -8.3417   -0.0000 N   0  0  0  0  0  0  0  0  0  0  0  0
   -9.8708   -7.4217   -0.0000 N   0  0  0  0  0  0  0  0  0  0  0  0
  -10.3059   -4.6370   -0.0000 C   0  0  0  0  0  0  0  0  0  0  0  0
   -8.6152   -9.9081   -0.0000 C   0  0  0  0  0  0  0  0  0  0  0  0
  -11.5739   -4.7489   -0.0000 F   0  0  0  0  0  0  0  0  0  0  0  0
   -9.7962   -3.4809   -0.0000 F   0  0  0  0  0  0  0  0  0  0  0  0
  -11.0518   -3.5928   -0.0000 F   0  0  0  0  0  0  0  0  0  0  0  0
  -10.0573  -10.5794   -0.0000 C   0  0  0  0  0  0  0  0  0  0  0  0
   -7.3223  -10.7783   -0.0000 C   0  0  0  0  0  0  0  0  0  0  0  0
  -10.1816  -12.1458   -0.0000 C   0  0  0  0  0  0  0  0  0  0  0  0
   -7.4466  -12.3447   -0.0000 C   0  0  0  0  0  0  0  0  0  0  0  0
  -11.6237  -12.8171   -0.0000 C   0  0  0  0  0  0  0  0  0  0  0  0
   -8.8887  -13.0160   -0.0000 C   0  0  0  0  0  0  0  0  0  0  0  0
  -12.6803  -12.0961   -0.0000 O   0  0  0  0  0  0  0  0  0  0  0  0
  -11.7355  -14.0603   -0.0000 O   0  0  0  0  0  0  0  0  0  0  0  0
  1  2  1  0  0  0  0
  2  3  2  0  0  0  0
  2  4  1  0  0  0  0
  3  5  1  0  0  0  0
  4  6  2  0  0  0  0
  5  7  2  0  0  0  0
  5  8  1  0  0  0  0
  7  9  1  0  0  0  0
  8 10  1  0  0  0  0
  8 11  2  0  0  0  0
  9 12  2  0  0  0  0
  9 13  1  0  0  0  0
 10 14  1  0  0  0  0
 11 15  1  0  0  0  0
 14 16  1  0  0  0  0
 16 17  2  0  0  0  0
 17 18  1  0  0  0  0
 17 19  1  0  0  0  0
 18 20  2  0  0  0  0
 18 21  1  0  0  0  0
 19 22  2  0  0  0  0
 19 23  1  0  0  0  0
 21 24  1  0  0  0  0
 23 25  1  0  0  0  0
 23 26  1  0  0  0  0
 23 27  1  0  0  0  0
 24 28  2  0  0  0  0
 24 29  1  0  0  0  0
 28 30  1  0  0  0  0
 29 31  2  0  0  0  0
 30 32  1  0  0  0  0
 30 33  2  0  0  0  0
 32 34  2  0  0  0  0
 32 35  1  0  0  0  0
  6  7  1  0  0  0  0
 14 15  2  0  0  0  0
 21 22  1  0  0  0  0
 31 33  1  0  0  0  0
M  END
>  <MolRegNo>
2087686

>  <m>
>

>  <Value>
50000

>  <Unit>
nM

>  <Type>
IC50

>  <Ligand Efficiency>


>  <Binding Efficiency>


>  <Surface Efficiency>


>  <Assay Index>
1017144

>  <Assay Category>


>  <Assay Organism>
SARS coronavirus

>  <Target ID>
101075

>  <Target Name>
Replicase polyprotein 1ab

>  <Target Organism>
SARS coronavirus

>  <Target Description>
Target is a single protein chain

>  <Sequence Accession>
P0C6X7

>  <Reference>
Bioorg. Med. Chem. 24 (13), 3035-3042 (2016)

>  <Pubmed ID>
27240464

>  <DOI>
10.1016/j.bmc.2016.05.013

>  <InChI-Key>
ZMTQIEODEJVNQW-UHFFFAOYSA-N

>  <Molecular Formula>
C23H12N2O6ClF3

>  <Monoisotopic Mass>
504.033599

>  <Druglikeness>
-6.6683

$$$$
Compound 670
Actelion Java MolfileCreator 1.0

 23 24  0  0  0  0  0  0  0  0999 V2000
    0.0000   -0.0000   -0.0000 Cl  0  0  0  0  0  0  0  0  0  0  0  0
    1.2859    0.7620   -0.0000 C   0  0  0  0  0  0  0  0  0  0  0  0
    2.5719    0.0238   -0.0000 C   0  0  0  0  0  0  0  0  0  0  0  0
    1.2740    2.2742   -0.0000 C   0  0  0  0  0  0  0  0  0  0  0  0
    3.8697    0.7858   -0.0000 C   0  0  0  0  0  0  0  0  0  0  0  0
    2.5599    3.0362   -0.0000 C   0  0  0  0  0  0  0  0  0  0  0  0
    3.8578    2.3099   -0.0000 C   0  0  0  0  0  0  0  0  0  0  0  0
    5.1437    3.0719   -0.0000 S   0  0  0  0  0  0  0  0  0  0  0  0
    5.8938    1.7860   -0.0000 O   0  0  0  0  0  0  0  0  0  0  0  0
    4.3698    4.3817   -0.0000 O   0  0  0  0  0  0  0  0  0  0  0  0
    6.4296    3.8459   -0.0000 C   0  0  0  0  0  0  0  0  0  0  0  0
    7.7275    3.1077   -0.0000 C   0  0  0  0  0  0  0  0  0  0  0  0
    6.4058    5.3461   -0.0000 C   0  0  0  0  0  0  0  0  0  0  0  0
    7.7275    1.6074   -0.0000 N   0  0  0  0  0  0  0  0  0  0  0  0
    9.0134    3.8816   -0.0000 C   0  0  0  0  0  0  0  0  0  0  0  0
    7.6798    6.1201   -0.0000 C   0  0  0  0  0  0  0  0  0  0  0  0
    9.0253    0.8811   -0.0000 O   0  0  0  0  0  0  0  0  0  0  0  0
    6.4177    0.8573   -0.0000 O   0  0  0  0  0  0  0  0  0  0  0  0
    8.9896    5.3938   -0.0000 C   0  0  0  0  0  0  0  0  0  0  0  0
   10.2755    6.1677   -0.0000 C   0  0  0  0  0  0  0  0  0  0  0  0
   11.5495    6.9416   -0.0000 F   0  0  0  0  0  0  0  0  0  0  0  0
    9.5016    7.4774   -0.0000 F   0  0  0  0  0  0  0  0  0  0  0  0
   11.0256    4.8818   -0.0000 F   0  0  0  0  0  0  0  0  0  0  0  0
  1  2  1  0  0  0  0
  2  3  2  0  0  0  0
  2  4  1  0  0  0  0
  3  5  1  0  0  0  0
  4  6  2  0  0  0  0
  5  7  2  0  0  0  0
  7  8  1  0  0  0  0
  8  9  2  0  0  0  0
  8 10  2  0  0  0  0
  8 11  1  0  0  0  0
 11 12  2  0  0  0  0
 11 13  1  0  0  0  0
 12 14  1  0  0  0  0
 12 15  1  0  0  0  0
 13 16  2  0  0  0  0
 14 17  2  0  0  0  0
 14 18  1  0  0  0  0
 15 19  2  0  0  0  0
 19 20  1  0  0  0  0
 20 21  1  0  0  0  0
 20 22  1  0  0  0  0
 20 23  1  0  0  0  0
  6  7  1  0  0  0  0
 16 19  1  0  0  0  0
M  CHG  2  14   1  18  -1
M  END
>  <MolRegNo>
356547

>  <m>
=

>  <Value>
12000

>  <Unit>
nM

>  <Type>
IC50

>  <Ligand Efficiency>
0.29

>  <Binding Efficiency>
13.46

>  <Surface Efficiency>
6.37

>  <Assay Index>
266027

>  <Assay Category>


>  <Assay Organism>
SARS coronavirus

>  <Target ID>
20012

>  <Target Name>
SARS coronavirus 3C-like proteinase

>  <Target Organism>
SARS coronavirus

>  <Target Description>
Target is a single protein chain

>  <Sequence Accession>
P0C6U8

>  <Reference>
J. Med. Chem. 49 (17), 5154-5161 (2006)

>  <Pubmed ID>
16913704

>  <DOI>
10.1021/jm060207o

>  <InChI-Key>
ZNNXTHUWLFOGRX-UHFFFAOYSA-N

>  <Molecular Formula>
C13H7NO4ClF3S

>  <Monoisotopic Mass>
364.973640

>  <Druglikeness>
-14.718

$$$$
Compound 671
Actelion Java MolfileCreator 1.0

 45 45  0  0  1  0  0  0  0  0999 V2000
    0.0000   -0.0000   -0.0000 O   0  0  0  0  0  0  0  0  0  0  0  0
    1.1068    1.0126   -0.0000 C   0  0  0  0  0  0  0  0  0  0  0  0
    2.5550    0.7065   -0.0000 N   0  0  0  0  0  0  0  0  0  0  0  0
    0.9419    2.5079   -0.0000 C   0  0  0  0  0  0  0  0  0  0  0  0
    3.2968    2.0134   -0.0000 C   0  0  0  0  0  0  0  0  0  0  0  0
    2.2960    3.1320   -0.0000 C   0  0  0  0  0  0  0  0  0  0  0  0
   -0.3650    3.2732   -0.0000 C   0  0  0  0  0  0  0  0  0  0  0  0
   -0.3768    4.7804   -0.0000 C   0  0  0  0  0  0  0  0  0  0  0  0
   -1.6837    5.5457   -0.0000 N   0  0  0  0  0  0  0  0  0  0  0  0
    0.9066    5.5339   -0.0000 C   0  0  0  0  0  0  0  0  0  0  0  0
   -2.9907    4.8157   -0.0000 C   0  0  0  0  0  0  0  0  0  0  0  0
    0.8948    7.0410   -0.0000 C   0  0  0  0  0  0  0  0  0  0  0  0
   -3.0024    3.3321   -0.0000 O   0  0  0  0  0  0  0  0  0  0  0  0
   -4.2976    5.5810   -0.0000 C   0  0  0  0  0  0  0  0  0  0  0  0
    2.1782    7.7946   -0.0000 C   0  0  0  0  0  0  0  0  0  0  0  0
   -5.6045    4.8510   -0.0000 C   0  0  0  0  0  0  0  0  0  0  0  0
   -4.3094    7.0881   -0.0000 C   0  0  0  0  0  0  0  0  0  0  0  0
    2.1665    9.3017   -0.0000 O   0  0  0  0  0  0  0  0  0  0  0  0
    3.4616    7.0528   -0.0000 O   0  0  0  0  0  0  0  0  0  0  0  0
   -6.9115    5.6163   -0.0000 C   0  0  0  0  0  0  0  0  0  0  0  0
   -3.0260    7.8417   -0.0000 C   0  0  0  0  0  0  0  0  0  0  0  0
    4.7450    7.8063   -0.0000 C   0  0  0  0  0  0  0  0  0  0  0  0
   -6.9233    7.1234   -0.0000 O   0  0  0  0  0  0  0  0  0  0  0  0
   -8.2184    4.8863   -0.0000 C   0  0  0  0  0  0  0  0  0  0  0  0
   -3.0378    9.3488   -0.0000 C   0  0  0  0  0  0  0  0  0  0  0  0
    6.0284    7.0646   -0.0000 C   0  0  0  0  0  0  0  0  0  0  0  0
   -9.5254    5.6516   -0.0000 N   0  0  0  0  0  0  0  0  0  0  0  0
   -8.2302    3.4028   -0.0000 C   0  0  0  0  0  0  0  0  0  0  0  0
   -1.7544   10.1023   -0.0000 C   0  0  0  0  0  0  0  0  0  0  0  0
   -4.3447   10.1141   -0.0000 C   0  0  0  0  0  0  0  0  0  0  0  0
  -10.8323    4.9216   -0.0000 C   0  0  0  0  0  0  0  0  0  0  0  0
   -9.5372    2.6728   -0.0000 C   0  0  0  0  0  0  0  0  0  0  0  0
   -6.9468    2.6610   -0.0000 C   0  0  0  0  0  0  0  0  0  0  0  0
  -10.8441    3.4381   -0.0000 O   0  0  0  0  0  0  0  0  0  0  0  0
  -12.1393    5.6870   -0.0000 C   0  0  0  0  0  0  0  0  0  0  0  0
  -13.4462    4.9570   -0.0000 N   0  0  0  0  0  0  0  0  0  0  0  0
  -12.1510    7.1941   -0.0000 C   0  0  0  0  0  0  0  0  0  0  0  0
  -14.7531    5.7223   -0.0000 C   0  0  0  0  0  0  0  0  0  0  0  0
  -13.4580    7.9594   -0.0000 O   0  0  0  0  0  0  0  0  0  0  0  0
  -14.7649    7.2294   -0.0000 O   0  0  0  0  0  0  0  0  0  0  0  0
  -16.0601    4.9923   -0.0000 O   0  0  0  0  0  0  0  0  0  0  0  0
  -17.3670    5.7576   -0.0000 C   0  0  0  0  0  0  0  0  0  0  0  0
  -16.6370    7.0646   -0.0000 C   0  0  0  0  0  0  0  0  0  0  0  0
  -18.1324    4.4742   -0.0000 C   0  0  0  0  0  0  0  0  0  0  0  0
  -18.6740    6.5112   -0.0000 C   0  0  0  0  0  0  0  0  0  0  0  0
  1  2  2  0  0  0  0
  2  3  1  0  0  0  0
  2  4  1  0  0  0  0
  3  5  1  0  0  0  0
  4  6  1  0  0  0  0
  4  7  1  6  0  0  0
  7  8  1  0  0  0  0
  8  9  1  6  0  0  0
  8 10  1  0  0  0  0
  9 11  1  0  0  0  0
 10 12  2  0  0  0  0
 11 13  2  0  0  0  0
 11 14  1  0  0  0  0
 12 15  1  0  0  0  0
 14 16  1  1  0  0  0
 14 17  1  0  0  0  0
 15 18  2  0  0  0  0
 15 19  1  0  0  0  0
 16 20  1  0  0  0  0
 17 21  1  0  0  0  0
 19 22  1  0  0  0  0
 20 23  2  0  0  0  0
 20 24  1  0  0  0  0
 21 25  2  0  0  0  0
 22 26  1  0  0  0  0
 24 27  1  6  0  0  0
 24 28  1  0  0  0  0
 25 29  1  0  0  0  0
 25 30  1  0  0  0  0
 27 31  1  0  0  0  0
 28 32  1  0  0  0  0
 28 33  1  0  0  0  0
 31 34  2  0  0  0  0
 31 35  1  0  0  0  0
 35 36  1  1  0  0  0
 35 37  1  0  0  0  0
 36 38  1  0  0  0  0
 37 39  1  0  0  0  0
 38 40  2  0  0  0  0
 38 41  1  0  0  0  0
 41 42  1  0  0  0  0
 42 43  1  0  0  0  0
 42 44  1  0  0  0  0
 42 45  1  0  0  0  0
  5  6  1  0  0  0  0
M  END
>  <MolRegNo>
399192

>  <m>
=

>  <Value>
75000

>  <Unit>
nM

>  <Type>
IC50

>  <Ligand Efficiency>


>  <Binding Efficiency>


>  <Surface Efficiency>


>  <Assay Index>
298649

>  <Assay Category>


>  <Assay Organism>
SARS coronavirus

>  <Target ID>
100499

>  <Target Name>
SARS coronavirus

>  <Target Organism>
SARS coronavirus

>  <Target Description>
Target is a complete organism

>  <Sequence Accession>


>  <Reference>
Bioorg. Med. Chem. Lett. 17 (21), 5876-5880 (2007)

>  <Pubmed ID>
17855091

>  <DOI>
10.1016/j.bmcl.2007.08.031

>  <InChI-Key>
ZQTRLNLQBUBFLO-YHSKNBGQSA-N

>  <Molecular Formula>
C32H52N4O9

>  <Monoisotopic Mass>
636.373431

>  <Druglikeness>
-64.332

$$$$
Compound 672
Actelion Java MolfileCreator 1.0

 21 23  0  0  0  0  0  0  0  0999 V2000
    0.0000   -0.0000   -0.0000 I   0  0  0  0  0  0  0  0  0  0  0  0
    1.2926   -0.7352   -0.0000 C   0  0  0  0  0  0  0  0  0  0  0  0
    2.5851    0.0474   -0.0000 C   0  0  0  0  0  0  0  0  0  0  0  0
    1.2807   -2.2294   -0.0000 C   0  0  0  0  0  0  0  0  0  0  0  0
    3.8777   -0.6878   -0.0000 C   0  0  0  0  0  0  0  0  0  0  0  0
    2.5733   -2.9646   -0.0000 C   0  0  0  0  0  0  0  0  0  0  0  0
    5.3007   -0.2135   -0.0000 C   0  0  0  0  0  0  0  0  0  0  0  0
    3.8659   -2.1820   -0.0000 C   0  0  0  0  0  0  0  0  0  0  0  0
    5.7514    1.2333   -0.0000 O   0  0  0  0  0  0  0  0  0  0  0  0
    6.1783   -1.4230   -0.0000 C   0  0  0  0  0  0  0  0  0  0  0  0
    5.2889   -2.6444   -0.0000 N   0  0  0  0  0  0  0  0  0  0  0  0
    7.6724   -1.4112   -0.0000 O   0  0  0  0  0  0  0  0  0  0  0  0
    5.7395   -4.0675   -0.0000 C   0  0  0  0  0  0  0  0  0  0  0  0
    4.7197   -5.1703   -0.0000 C   0  0  0  0  0  0  0  0  0  0  0  0
    5.1821   -6.5814   -0.0000 C   0  0  0  0  0  0  0  0  0  0  0  0
    3.2374   -4.8383   -0.0000 C   0  0  0  0  0  0  0  0  0  0  0  0
    6.6407   -6.8779   -0.0000 Cl  0  0  0  0  0  0  0  0  0  0  0  0
    4.1623   -7.6843   -0.0000 C   0  0  0  0  0  0  0  0  0  0  0  0
    2.2057   -5.9411   -0.0000 C   0  0  0  0  0  0  0  0  0  0  0  0
    2.6682   -7.3641   -0.0000 C   0  0  0  0  0  0  0  0  0  0  0  0
    1.6483   -8.4551   -0.0000 F   0  0  0  0  0  0  0  0  0  0  0  0
  1  2  1  0  0  0  0
  2  3  2  0  0  0  0
  2  4  1  0  0  0  0
  3  5  1  0  0  0  0
  4  6  2  0  0  0  0
  5  7  1  0  0  0  0
  5  8  2  0  0  0  0
  7  9  2  0  0  0  0
  7 10  1  0  0  0  0
  8 11  1  0  0  0  0
 10 12  2  0  0  0  0
 11 13  1  0  0  0  0
 13 14  1  0  0  0  0
 14 15  2  0  0  0  0
 14 16  1  0  0  0  0
 15 17  1  0  0  0  0
 15 18  1  0  0  0  0
 16 19  2  0  0  0  0
 18 20  2  0  0  0  0
 20 21  1  0  0  0  0
  6  8  1  0  0  0  0
 10 11  1  0  0  0  0
 19 20  1  0  0  0  0
M  END
>  <MolRegNo>
316152

>  <m>
=

>  <Value>
9400

>  <Unit>
nM

>  <Type>
IC50

>  <Ligand Efficiency>
0.33

>  <Binding Efficiency>
12.10

>  <Surface Efficiency>
13.45

>  <Assay Index>
238671

>  <Assay Category>


>  <Assay Organism>
SARS coronavirus

>  <Target ID>
20012

>  <Target Name>
SARS coronavirus 3C-like proteinase

>  <Target Organism>
SARS coronavirus

>  <Target Description>
Target is a single protein chain

>  <Sequence Accession>
P0C6U8

>  <Reference>
Bioorg. Med. Chem. Lett. 15 (12), 3058-3062 (2005)

>  <Pubmed ID>
15896959

>  <DOI>
10.1016/j.bmcl.2005.04.027

>  <InChI-Key>
ZRTPFLLKDJDNGZ-UHFFFAOYSA-N

>  <Molecular Formula>
C15H8NO2ClFI

>  <Monoisotopic Mass>
414.927232

>  <Druglikeness>
-0.76462

$$$$
Compound 673
Actelion Java MolfileCreator 1.0

 26 25  0  0  1  0  0  0  0  0999 V2000
    0.0000   -0.0000   -0.0000 S   0  0  0  0  0  0  0  0  0  0  0  0
   -0.0118    1.5063   -0.0000 C   0  0  0  0  0  0  0  0  0  0  0  0
    1.2709    2.2594   -0.0000 C   0  0  0  0  0  0  0  0  0  0  0  0
   -1.3180    2.2594   -0.0000 C   0  0  0  0  0  0  0  0  0  0  0  0
    1.2591    3.7656   -0.0000 O   0  0  0  0  0  0  0  0  0  0  0  0
    2.5536    1.5298   -0.0000 O   0  0  0  0  0  0  0  0  0  0  0  0
   -1.3297    3.7656   -0.0000 O   0  0  0  0  0  0  0  0  0  0  0  0
   -2.6242    1.5298   -0.0000 C   0  0  0  0  0  0  0  0  0  0  0  0
   -2.6359    0.0471   -0.0000 O   0  0  0  0  0  0  0  0  0  0  0  0
   -3.9304    2.2829   -0.0000 N   0  0  0  0  0  0  0  0  0  0  0  0
   -5.2484    1.5533   -0.0000 C   0  0  0  0  0  0  0  0  0  0  0  0
   -6.5546    2.3065   -0.0000 C   0  0  0  0  0  0  0  0  0  0  0  0
   -5.2601    0.0706   -0.0000 C   0  0  0  0  0  0  0  0  0  0  0  0
   -7.8608    1.5769   -0.0000 O   0  0  0  0  0  0  0  0  0  0  0  0
   -6.5663    3.8127   -0.0000 N   0  0  0  0  0  0  0  0  0  0  0  0
   -6.5663   -0.6590   -0.0000 C   0  0  0  0  0  0  0  0  0  0  0  0
   -7.8725    4.5658   -0.0000 C   0  0  0  0  0  0  0  0  0  0  0  0
   -6.5781   -2.1417   -0.0000 C   0  0  0  0  0  0  0  0  0  0  0  0
   -7.8725    0.0941   -0.0000 C   0  0  0  0  0  0  0  0  0  0  0  0
   -7.8843    6.0721   -0.0000 C   0  0  0  0  0  0  0  0  0  0  0  0
   -9.1905    6.8252   -0.0000 C   0  0  0  0  0  0  0  0  0  0  0  0
   -9.2023    8.3315   -0.0000 C   0  0  0  0  0  0  0  0  0  0  0  0
  -10.5085    9.0846   -0.0000 N   0  0  0  0  0  0  0  0  0  0  0  0
  -10.5203   10.5909   -0.0000 C   0  0  0  0  0  0  0  0  0  0  0  0
  -11.8265   11.3440   -0.0000 N   0  0  0  0  0  0  0  0  0  0  0  0
   -9.2376   11.3440   -0.0000 N   0  0  0  0  0  0  0  0  0  0  0  0
  1  2  1  0  0  0  0
  2  3  1  0  0  0  0
  2  4  1  0  0  0  0
  3  5  2  0  0  0  0
  3  6  1  0  0  0  0
  4  7  1  1  0  0  0
  4  8  1  0  0  0  0
  8  9  2  0  0  0  0
  8 10  1  0  0  0  0
 11 10  1  1  0  0  0
 11 12  1  0  0  0  0
 11 13  1  0  0  0  0
 12 14  2  0  0  0  0
 12 15  1  0  0  0  0
 13 16  1  0  0  0  0
 15 17  1  0  0  0  0
 16 18  1  0  0  0  0
 16 19  1  0  0  0  0
 17 20  1  0  0  0  0
 20 21  1  0  0  0  0
 21 22  1  0  0  0  0
 22 23  1  0  0  0  0
 23 24  2  0  0  0  0
 24 25  1  0  0  0  0
 24 26  1  0  0  0  0
M  END
>  <MolRegNo>
329384

>  <m>
=

>  <Value>
5.25

>  <Unit>
hr

>  <Type>
T1/2

>  <Ligand Efficiency>


>  <Binding Efficiency>


>  <Surface Efficiency>


>  <Assay Index>
250668

>  <Assay Category>


>  <Assay Organism>
Carona virus

>  <Target ID>
20012

>  <Target Name>
SARS coronavirus 3C-like proteinase

>  <Target Organism>
SARS coronavirus

>  <Target Description>
Target is a single protein chain

>  <Sequence Accession>
P0C6U8

>  <Reference>
J. Med. Chem. 48 (22), 6767-6771 (2005)

>  <Pubmed ID>
16250632

>  <DOI>
10.1021/jm050548m

>  <InChI-Key>
ZSZSUROZICPQPN-QRHSGQBVSA-N

>  <Molecular Formula>
C15H29N5O5S

>  <Monoisotopic Mass>
391.188940

>  <Druglikeness>
-0.0095309

$$$$
Compound 674
Actelion Java MolfileCreator 1.0

 26 25  0  0  1  0  0  0  0  0999 V2000
    0.0000   -0.0000   -0.0000 S   0  0  0  0  0  0  0  0  0  0  0  0
   -0.0118    1.5063   -0.0000 C   0  0  0  0  0  0  0  0  0  0  0  0
    1.2709    2.2594   -0.0000 C   0  0  0  0  0  0  0  0  0  0  0  0
   -1.3180    2.2594   -0.0000 C   0  0  0  0  0  0  0  0  0  0  0  0
    1.2591    3.7656   -0.0000 O   0  0  0  0  0  0  0  0  0  0  0  0
    2.5536    1.5298   -0.0000 O   0  0  0  0  0  0  0  0  0  0  0  0
   -1.3297    3.7656   -0.0000 O   0  0  0  0  0  0  0  0  0  0  0  0
   -2.6242    1.5298   -0.0000 C   0  0  0  0  0  0  0  0  0  0  0  0
   -2.6359    0.0471   -0.0000 O   0  0  0  0  0  0  0  0  0  0  0  0
   -3.9304    2.2829   -0.0000 N   0  0  0  0  0  0  0  0  0  0  0  0
   -5.2484    1.5533   -0.0000 C   0  0  0  0  0  0  0  0  0  0  0  0
   -6.5546    2.3065   -0.0000 C   0  0  0  0  0  0  0  0  0  0  0  0
   -5.2601    0.0706   -0.0000 C   0  0  0  0  0  0  0  0  0  0  0  0
   -7.8608    1.5769   -0.0000 O   0  0  0  0  0  0  0  0  0  0  0  0
   -6.5663    3.8127   -0.0000 N   0  0  0  0  0  0  0  0  0  0  0  0
   -6.5663   -0.6590   -0.0000 C   0  0  0  0  0  0  0  0  0  0  0  0
   -7.8725    4.5658   -0.0000 C   0  0  0  0  0  0  0  0  0  0  0  0
   -6.5781   -2.1417   -0.0000 C   0  0  0  0  0  0  0  0  0  0  0  0
   -7.8725    0.0941   -0.0000 C   0  0  0  0  0  0  0  0  0  0  0  0
   -7.8843    6.0721   -0.0000 C   0  0  0  0  0  0  0  0  0  0  0  0
   -9.1905    6.8252   -0.0000 C   0  0  0  0  0  0  0  0  0  0  0  0
   -9.2023    8.3315   -0.0000 C   0  0  0  0  0  0  0  0  0  0  0  0
  -10.5085    9.0846   -0.0000 N   0  0  0  0  0  0  0  0  0  0  0  0
  -10.5203   10.5909   -0.0000 C   0  0  0  0  0  0  0  0  0  0  0  0
  -11.8265   11.3440   -0.0000 N   0  0  0  0  0  0  0  0  0  0  0  0
   -9.2376   11.3440   -0.0000 N   0  0  0  0  0  0  0  0  0  0  0  0
  1  2  1  0  0  0  0
  2  3  1  0  0  0  0
  2  4  1  0  0  0  0
  3  5  2  0  0  0  0
  3  6  1  0  0  0  0
  4  7  1  1  0  0  0
  4  8  1  0  0  0  0
  8  9  2  0  0  0  0
  8 10  1  0  0  0  0
 11 10  1  1  0  0  0
 11 12  1  0  0  0  0
 11 13  1  0  0  0  0
 12 14  2  0  0  0  0
 12 15  1  0  0  0  0
 13 16  1  0  0  0  0
 15 17  1  0  0  0  0
 16 18  1  0  0  0  0
 16 19  1  0  0  0  0
 17 20  1  0  0  0  0
 20 21  1  0  0  0  0
 21 22  1  0  0  0  0
 22 23  1  0  0  0  0
 23 24  2  0  0  0  0
 24 25  1  0  0  0  0
 24 26  1  0  0  0  0
M  END
>  <MolRegNo>
329384

>  <m>
=

>  <Value>
0.0022

>  <Unit>
1/min

>  <Type>
kinact

>  <Ligand Efficiency>


>  <Binding Efficiency>


>  <Surface Efficiency>


>  <Assay Index>
250772

>  <Assay Category>


>  <Assay Organism>
Carona virus

>  <Target ID>
20012

>  <Target Name>
SARS coronavirus 3C-like proteinase

>  <Target Organism>
SARS coronavirus

>  <Target Description>
Target is a single protein chain

>  <Sequence Accession>
P0C6U8

>  <Reference>
J. Med. Chem. 48 (22), 6767-6771 (2005)

>  <Pubmed ID>
16250632

>  <DOI>
10.1021/jm050548m

>  <InChI-Key>
ZSZSUROZICPQPN-QRHSGQBVSA-N

>  <Molecular Formula>
C15H29N5O5S

>  <Monoisotopic Mass>
391.188940

>  <Druglikeness>
-0.0095309

$$$$
Compound 675
Actelion Java MolfileCreator 1.0

 32 36  0  0  0  0  0  0  0  0999 V2000
    0.0000   -0.0000   -0.0000 Cl  0  0  0  0  0  0  0  0  0  0  0  0
    1.2816   -0.7358   -0.0000 C   0  0  0  0  0  0  0  0  0  0  0  0
    2.5633    0.0237   -0.0000 C   0  0  0  0  0  0  0  0  0  0  0  0
    1.2698   -2.2310   -0.0000 C   0  0  0  0  0  0  0  0  0  0  0  0
    3.8449   -0.7120   -0.0000 C   0  0  0  0  0  0  0  0  0  0  0  0
    2.5514    1.5309   -0.0000 C   0  0  0  0  0  0  0  0  0  0  0  0
    2.5514   -2.9668   -0.0000 C   0  0  0  0  0  0  0  0  0  0  0  0
    5.1266    0.0475   -0.0000 Cl  0  0  0  0  0  0  0  0  0  0  0  0
    3.8331   -2.2073   -0.0000 C   0  0  0  0  0  0  0  0  0  0  0  0
    3.7381    2.4209   -0.0000 S   0  0  0  0  0  0  0  0  0  0  0  0
    1.3172    2.4090   -0.0000 N   0  0  0  0  0  0  0  0  0  0  0  0
    3.2635    3.8568   -0.0000 C   0  0  0  0  0  0  0  0  0  0  0  0
   -0.1899    2.4090   -0.0000 C   0  0  0  0  0  0  0  0  0  0  0  0
    1.7682    3.8449   -0.0000 C   0  0  0  0  0  0  0  0  0  0  0  0
   -0.9494    3.7144   -0.0000 N   0  0  0  0  0  0  0  0  0  0  0  0
   -0.9375    1.1155   -0.0000 N   0  0  0  0  0  0  0  0  0  0  0  0
    0.8782    5.0673   -0.0000 O   0  0  0  0  0  0  0  0  0  0  0  0
   -2.4565    3.7144   -0.0000 C   0  0  0  0  0  0  0  0  0  0  0  0
   -2.4446    1.1155   -0.0000 C   0  0  0  0  0  0  0  0  0  0  0  0
   -3.2279    5.0198   -0.0000 C   0  0  0  0  0  0  0  0  0  0  0  0
   -3.2160    2.4209   -0.0000 C   0  0  0  0  0  0  0  0  0  0  0  0
   -3.1923   -0.1780   -0.0000 C   0  0  0  0  0  0  0  0  0  0  0  0
   -2.4921    6.3252   -0.0000 C   0  0  0  0  0  0  0  0  0  0  0  0
   -4.7231    5.0079   -0.0000 C   0  0  0  0  0  0  0  0  0  0  0  0
   -4.6994   -0.1661   -0.0000 C   0  0  0  0  0  0  0  0  0  0  0  0
   -2.4328   -1.4478   -0.0000 C   0  0  0  0  0  0  0  0  0  0  0  0
   -3.2516    7.6306   -0.0000 C   0  0  0  0  0  0  0  0  0  0  0  0
   -5.4945    6.3014   -0.0000 C   0  0  0  0  0  0  0  0  0  0  0  0
   -5.4470   -1.4597   -0.0000 C   0  0  0  0  0  0  0  0  0  0  0  0
   -3.1804   -2.7413   -0.0000 C   0  0  0  0  0  0  0  0  0  0  0  0
   -4.7587    7.6424   -0.0000 C   0  0  0  0  0  0  0  0  0  0  0  0
   -4.6994   -2.7413   -0.0000 C   0  0  0  0  0  0  0  0  0  0  0  0
  1  2  1  0  0  0  0
  2  3  2  0  0  0  0
  2  4  1  0  0  0  0
  3  5  1  0  0  0  0
  3  6  1  0  0  0  0
  4  7  2  0  0  0  0
  5  8  1  0  0  0  0
  5  9  2  0  0  0  0
  6 10  1  0  0  0  0
  6 11  1  0  0  0  0
 10 12  1  0  0  0  0
 11 13  1  0  0  0  0
 11 14  1  0  0  0  0
 13 15  2  0  0  0  0
 13 16  1  0  0  0  0
 14 17  2  0  0  0  0
 15 18  1  0  0  0  0
 16 19  2  0  0  0  0
 18 20  1  0  0  0  0
 18 21  2  0  0  0  0
 19 22  1  0  0  0  0
 20 23  2  0  0  0  0
 20 24  1  0  0  0  0
 22 25  2  0  0  0  0
 22 26  1  0  0  0  0
 23 27  1  0  0  0  0
 24 28  2  0  0  0  0
 25 29  1  0  0  0  0
 26 30  2  0  0  0  0
 27 31  2  0  0  0  0
 29 32  2  0  0  0  0
  7  9  1  0  0  0  0
 12 14  1  0  0  0  0
 19 21  1  0  0  0  0
 28 31  1  0  0  0  0
 30 32  1  0  0  0  0
M  END
>  <MolRegNo>
379293

>  <m>
<=

>  <Value>
50

>  <Unit>
%

>  <Type>
Inhibition

>  <Ligand Efficiency>


>  <Binding Efficiency>


>  <Surface Efficiency>


>  <Assay Index>
406904

>  <Assay Category>


>  <Assay Organism>
SARS coronavirus

>  <Target ID>
101075

>  <Target Name>
Replicase polyprotein 1ab

>  <Target Organism>
SARS coronavirus

>  <Target Description>
Target is a single protein chain

>  <Sequence Accession>
P0C6X7

>  <Reference>
Bioorg. Med. Chem. Lett. 18 (23), 6110-6114 (2008)

>  <Pubmed ID>
18947995

>  <DOI>
10.1016/j.bmcl.2008.10.023

>  <InChI-Key>
ZTKIWUHLKCBLTQ-UHFFFAOYSA-N

>  <Molecular Formula>
C25H17N3OCl2S

>  <Monoisotopic Mass>
477.046936

>  <Druglikeness>
2.8533

$$$$
Compound 676
Actelion Java MolfileCreator 1.0

 27 29  0  0  0  0  0  0  0  0999 V2000
    0.0000   -0.0000   -0.0000 Cl  0  0  0  0  0  0  0  0  0  0  0  0
   -0.0120   -1.4950   -0.0000 C   0  0  0  0  0  0  0  0  0  0  0  0
    1.2917   -2.2366   -0.0000 C   0  0  0  0  0  0  0  0  0  0  0  0
   -1.3395   -2.2485   -0.0000 C   0  0  0  0  0  0  0  0  0  0  0  0
    1.2797   -3.7316   -0.0000 C   0  0  0  0  0  0  0  0  0  0  0  0
   -1.3395   -3.7436   -0.0000 C   0  0  0  0  0  0  0  0  0  0  0  0
   -0.0478   -4.4731   -0.0000 C   0  0  0  0  0  0  0  0  0  0  0  0
   -0.0598   -5.9682   -0.0000 O   0  0  0  0  0  0  0  0  0  0  0  0
    1.2319   -6.7097   -0.0000 C   0  0  0  0  0  0  0  0  0  0  0  0
    1.2199   -8.2167   -0.0000 C   0  0  0  0  0  0  0  0  0  0  0  0
    2.5236   -5.9442   -0.0000 C   0  0  0  0  0  0  0  0  0  0  0  0
    2.5117   -8.9582   -0.0000 C   0  0  0  0  0  0  0  0  0  0  0  0
    3.8273   -6.6858   -0.0000 C   0  0  0  0  0  0  0  0  0  0  0  0
    3.8153   -8.1928   -0.0000 C   0  0  0  0  0  0  0  0  0  0  0  0
    5.1070   -8.9343   -0.0000 N   0  0  0  0  0  0  0  0  0  0  0  0
    6.3987   -8.1688   -0.0000 C   0  0  0  0  0  0  0  0  0  0  0  0
    6.3868   -6.6499   -0.0000 O   0  0  0  0  0  0  0  0  0  0  0  0
    7.6904   -8.9104   -0.0000 C   0  0  0  0  0  0  0  0  0  0  0  0
    8.9821   -8.1449   -0.0000 S   0  0  0  0  0  0  0  0  0  0  0  0
   10.2739   -8.8865   -0.0000 C   0  0  0  0  0  0  0  0  0  0  0  0
   11.5536   -8.1090   -0.0000 N   0  0  0  0  0  0  0  0  0  0  0  0
   10.2499  -10.3815   -0.0000 N   0  0  0  0  0  0  0  0  0  0  0  0
   12.8453   -8.8386   -0.0000 C   0  0  0  0  0  0  0  0  0  0  0  0
   11.5416  -11.1230   -0.0000 C   0  0  0  0  0  0  0  0  0  0  0  0
   14.1370   -8.0612   -0.0000 O   0  0  0  0  0  0  0  0  0  0  0  0
   12.8453  -10.3456   -0.0000 C   0  0  0  0  0  0  0  0  0  0  0  0
   11.5297  -12.6181   -0.0000 C   0  0  0  0  0  0  0  0  0  0  0  0
  1  2  1  0  0  0  0
  2  3  2  0  0  0  0
  2  4  1  0  0  0  0
  3  5  1  0  0  0  0
  4  6  2  0  0  0  0
  5  7  2  0  0  0  0
  7  8  1  0  0  0  0
  8  9  1  0  0  0  0
  9 10  2  0  0  0  0
  9 11  1  0  0  0  0
 10 12  1  0  0  0  0
 11 13  2  0  0  0  0
 12 14  2  0  0  0  0
 14 15  1  0  0  0  0
 15 16  1  0  0  0  0
 16 17  2  0  0  0  0
 16 18  1  0  0  0  0
 18 19  1  0  0  0  0
 19 20  1  0  0  0  0
 20 21  2  0  0  0  0
 20 22  1  0  0  0  0
 21 23  1  0  0  0  0
 22 24  2  0  0  0  0
 23 25  1  0  0  0  0
 23 26  2  0  0  0  0
 24 27  1  0  0  0  0
  6  7  1  0  0  0  0
 13 14  1  0  0  0  0
 24 26  1  0  0  0  0
M  END
>  <MolRegNo>
348913

>  <m>
=

>  <Value>
4.8978e12

>  <Unit>
nM

>  <Type>
IC50

>  <Ligand Efficiency>


>  <Binding Efficiency>


>  <Surface Efficiency>


>  <Assay Index>
262926

>  <Assay Category>


>  <Assay Organism>
SARS coronavirus

>  <Target ID>
20012

>  <Target Name>
SARS coronavirus 3C-like proteinase

>  <Target Organism>
SARS coronavirus

>  <Target Description>
Target is a single protein chain

>  <Sequence Accession>
P0C6U8

>  <Reference>
J. Med. Chem. 49 (12), 3485-3495 (2006)

>  <Pubmed ID>
16759091

>  <DOI>
10.1021/jm050852f

>  <InChI-Key>
ZUEMNPRILMWAIX-UHFFFAOYSA-N

>  <Molecular Formula>
C19H16N3O3ClS

>  <Monoisotopic Mass>
401.060089

>  <Druglikeness>
1.4126

$$$$
Compound 677
Actelion Java MolfileCreator 1.0

 27 29  0  0  0  0  0  0  0  0999 V2000
    0.0000   -0.0000   -0.0000 Cl  0  0  0  0  0  0  0  0  0  0  0  0
   -0.0120   -1.4950   -0.0000 C   0  0  0  0  0  0  0  0  0  0  0  0
    1.2917   -2.2366   -0.0000 C   0  0  0  0  0  0  0  0  0  0  0  0
   -1.3395   -2.2485   -0.0000 C   0  0  0  0  0  0  0  0  0  0  0  0
    1.2797   -3.7316   -0.0000 C   0  0  0  0  0  0  0  0  0  0  0  0
   -1.3395   -3.7436   -0.0000 C   0  0  0  0  0  0  0  0  0  0  0  0
   -0.0478   -4.4731   -0.0000 C   0  0  0  0  0  0  0  0  0  0  0  0
   -0.0598   -5.9682   -0.0000 O   0  0  0  0  0  0  0  0  0  0  0  0
    1.2319   -6.7097   -0.0000 C   0  0  0  0  0  0  0  0  0  0  0  0
    1.2199   -8.2167   -0.0000 C   0  0  0  0  0  0  0  0  0  0  0  0
    2.5236   -5.9442   -0.0000 C   0  0  0  0  0  0  0  0  0  0  0  0
    2.5117   -8.9582   -0.0000 C   0  0  0  0  0  0  0  0  0  0  0  0
    3.8273   -6.6858   -0.0000 C   0  0  0  0  0  0  0  0  0  0  0  0
    3.8153   -8.1928   -0.0000 C   0  0  0  0  0  0  0  0  0  0  0  0
    5.1070   -8.9343   -0.0000 N   0  0  0  0  0  0  0  0  0  0  0  0
    6.3987   -8.1688   -0.0000 C   0  0  0  0  0  0  0  0  0  0  0  0
    6.3868   -6.6499   -0.0000 O   0  0  0  0  0  0  0  0  0  0  0  0
    7.6904   -8.9104   -0.0000 C   0  0  0  0  0  0  0  0  0  0  0  0
    8.9821   -8.1449   -0.0000 S   0  0  0  0  0  0  0  0  0  0  0  0
   10.2739   -8.8865   -0.0000 C   0  0  0  0  0  0  0  0  0  0  0  0
   11.5536   -8.1090   -0.0000 N   0  0  0  0  0  0  0  0  0  0  0  0
   10.2499  -10.3815   -0.0000 N   0  0  0  0  0  0  0  0  0  0  0  0
   12.8453   -8.8386   -0.0000 C   0  0  0  0  0  0  0  0  0  0  0  0
   11.5416  -11.1230   -0.0000 C   0  0  0  0  0  0  0  0  0  0  0  0
   14.1370   -8.0612   -0.0000 O   0  0  0  0  0  0  0  0  0  0  0  0
   12.8453  -10.3456   -0.0000 C   0  0  0  0  0  0  0  0  0  0  0  0
   11.5297  -12.6181   -0.0000 C   0  0  0  0  0  0  0  0  0  0  0  0
  1  2  1  0  0  0  0
  2  3  2  0  0  0  0
  2  4  1  0  0  0  0
  3  5  1  0  0  0  0
  4  6  2  0  0  0  0
  5  7  2  0  0  0  0
  7  8  1  0  0  0  0
  8  9  1  0  0  0  0
  9 10  2  0  0  0  0
  9 11  1  0  0  0  0
 10 12  1  0  0  0  0
 11 13  2  0  0  0  0
 12 14  2  0  0  0  0
 14 15  1  0  0  0  0
 15 16  1  0  0  0  0
 16 17  2  0  0  0  0
 16 18  1  0  0  0  0
 18 19  1  0  0  0  0
 19 20  1  0  0  0  0
 20 21  2  0  0  0  0
 20 22  1  0  0  0  0
 21 23  1  0  0  0  0
 22 24  2  0  0  0  0
 23 25  1  0  0  0  0
 23 26  2  0  0  0  0
 24 27  1  0  0  0  0
  6  7  1  0  0  0  0
 13 14  1  0  0  0  0
 24 26  1  0  0  0  0
M  END
>  <MolRegNo>
348913

>  <m>
=

>  <Value>
2.0e5

>  <Unit>
nM

>  <Type>
IC50

>  <Ligand Efficiency>


>  <Binding Efficiency>


>  <Surface Efficiency>


>  <Assay Index>
262926

>  <Assay Category>


>  <Assay Organism>
SARS coronavirus

>  <Target ID>
20012

>  <Target Name>
SARS coronavirus 3C-like proteinase

>  <Target Organism>
SARS coronavirus

>  <Target Description>
Target is a single protein chain

>  <Sequence Accession>
P0C6U8

>  <Reference>
J. Med. Chem. 49 (12), 3485-3495 (2006)

>  <Pubmed ID>
16759091

>  <DOI>
10.1021/jm050852f

>  <InChI-Key>
ZUEMNPRILMWAIX-UHFFFAOYSA-N

>  <Molecular Formula>
C19H16N3O3ClS

>  <Monoisotopic Mass>
401.060089

>  <Druglikeness>
1.4126

$$$$
Compound 678
Actelion Java MolfileCreator 1.0

 31 35  0  0  0  0  0  0  0  0999 V2000
    0.0000   -0.0000   -0.0000 Cl  0  0  0  0  0  0  0  0  0  0  0  0
   -0.0118   -1.4927   -0.0000 C   0  0  0  0  0  0  0  0  0  0  0  0
   -1.3269   -2.2273   -0.0000 C   0  0  0  0  0  0  0  0  0  0  0  0
    1.2795   -2.2273   -0.0000 C   0  0  0  0  0  0  0  0  0  0  0  0
   -1.3387   -3.7200   -0.0000 C   0  0  0  0  0  0  0  0  0  0  0  0
    1.2676   -3.7200   -0.0000 C   0  0  0  0  0  0  0  0  0  0  0  0
   -0.0474   -4.4545   -0.0000 C   0  0  0  0  0  0  0  0  0  0  0  0
   -0.0592   -5.9473   -0.0000 C   0  0  0  0  0  0  0  0  0  0  0  0
   -1.3743   -6.6818   -0.0000 O   0  0  0  0  0  0  0  0  0  0  0  0
   -1.3861   -8.1745   -0.0000 C   0  0  0  0  0  0  0  0  0  0  0  0
   -2.7011   -8.9090   -0.0000 C   0  0  0  0  0  0  0  0  0  0  0  0
   -0.0948   -8.9090   -0.0000 C   0  0  0  0  0  0  0  0  0  0  0  0
   -2.7130  -10.4018   -0.0000 C   0  0  0  0  0  0  0  0  0  0  0  0
   -0.1066  -10.4018   -0.0000 C   0  0  0  0  0  0  0  0  0  0  0  0
   -4.0280  -11.1363   -0.0000 O   0  0  0  0  0  0  0  0  0  0  0  0
   -1.4217  -11.1363   -0.0000 C   0  0  0  0  0  0  0  0  0  0  0  0
    1.1847  -11.1363   -0.0000 O   0  0  0  0  0  0  0  0  0  0  0  0
   -4.0399  -12.6290   -0.0000 C   0  0  0  0  0  0  0  0  0  0  0  0
   -1.4335  -12.6290   -0.0000 C   0  0  0  0  0  0  0  0  0  0  0  0
   -2.7485  -13.3754   -0.0000 C   0  0  0  0  0  0  0  0  0  0  0  0
   -5.3549  -13.3754   -0.0000 C   0  0  0  0  0  0  0  0  0  0  0  0
   -0.1422  -13.3754   -0.0000 O   0  0  0  0  0  0  0  0  0  0  0  0
   -2.7604  -14.8681   -0.0000 O   0  0  0  0  0  0  0  0  0  0  0  0
   -6.6699  -12.6053   -0.0000 C   0  0  0  0  0  0  0  0  0  0  0  0
   -5.3667  -14.8681   -0.0000 C   0  0  0  0  0  0  0  0  0  0  0  0
   -7.9850  -13.3517   -0.0000 C   0  0  0  0  0  0  0  0  0  0  0  0
   -6.6818  -15.6145   -0.0000 C   0  0  0  0  0  0  0  0  0  0  0  0
   -9.4303  -12.8778   -0.0000 O   0  0  0  0  0  0  0  0  0  0  0  0
   -7.9968  -14.8444   -0.0000 C   0  0  0  0  0  0  0  0  0  0  0  0
  -10.3307  -14.0862   -0.0000 C   0  0  0  0  0  0  0  0  0  0  0  0
   -9.4422  -15.2946   -0.0000 O   0  0  0  0  0  0  0  0  0  0  0  0
  1  2  1  0  0  0  0
  2  3  2  0  0  0  0
  2  4  1  0  0  0  0
  3  5  1  0  0  0  0
  4  6  2  0  0  0  0
  5  7  2  0  0  0  0
  7  8  1  0  0  0  0
  8  9  1  0  0  0  0
  9 10  1  0  0  0  0
 10 11  2  0  0  0  0
 10 12  1  0  0  0  0
 11 13  1  0  0  0  0
 12 14  2  0  0  0  0
 13 15  1  0  0  0  0
 13 16  2  0  0  0  0
 14 17  1  0  0  0  0
 15 18  1  0  0  0  0
 16 19  1  0  0  0  0
 18 20  2  0  0  0  0
 18 21  1  0  0  0  0
 19 22  2  0  0  0  0
 20 23  1  0  0  0  0
 21 24  2  0  0  0  0
 21 25  1  0  0  0  0
 24 26  1  0  0  0  0
 25 27  2  0  0  0  0
 26 28  1  0  0  0  0
 26 29  2  0  0  0  0
 28 30  1  0  0  0  0
 29 31  1  0  0  0  0
  6  7  1  0  0  0  0
 14 16  1  0  0  0  0
 19 20  1  0  0  0  0
 27 29  1  0  0  0  0
 30 31  1  0  0  0  0
M  END
>  <MolRegNo>
564254

>  <m>
>

>  <Value>
50000

>  <Unit>
nM

>  <Type>
IC50

>  <Ligand Efficiency>


>  <Binding Efficiency>


>  <Surface Efficiency>


>  <Assay Index>
426933

>  <Assay Category>


>  <Assay Organism>
SARS coronavirus

>  <Target ID>
101075

>  <Target Name>
Replicase polyprotein 1ab

>  <Target Organism>
SARS coronavirus

>  <Target Description>
Target is a single protein chain

>  <Sequence Accession>
P0C6X7

>  <Reference>
Bioorg. Med. Chem. Lett. 19 (16), 4538-4541 (2009)

>  <Pubmed ID>
19625187

>  <DOI>
10.1016/j.bmcl.2009.07.009

>  <InChI-Key>
ZUVXTKFHFLXGGB-UHFFFAOYSA-N

>  <Molecular Formula>
C23H15O7Cl

>  <Monoisotopic Mass>
438.050632

>  <Druglikeness>
-0.12001

$$$$
Compound 679
Actelion Java MolfileCreator 1.0

 31 35  0  0  0  0  0  0  0  0999 V2000
    0.0000   -0.0000   -0.0000 Cl  0  0  0  0  0  0  0  0  0  0  0  0
   -0.0118   -1.4927   -0.0000 C   0  0  0  0  0  0  0  0  0  0  0  0
   -1.3269   -2.2273   -0.0000 C   0  0  0  0  0  0  0  0  0  0  0  0
    1.2795   -2.2273   -0.0000 C   0  0  0  0  0  0  0  0  0  0  0  0
   -1.3387   -3.7200   -0.0000 C   0  0  0  0  0  0  0  0  0  0  0  0
    1.2676   -3.7200   -0.0000 C   0  0  0  0  0  0  0  0  0  0  0  0
   -0.0474   -4.4545   -0.0000 C   0  0  0  0  0  0  0  0  0  0  0  0
   -0.0592   -5.9473   -0.0000 C   0  0  0  0  0  0  0  0  0  0  0  0
   -1.3743   -6.6818   -0.0000 O   0  0  0  0  0  0  0  0  0  0  0  0
   -1.3861   -8.1745   -0.0000 C   0  0  0  0  0  0  0  0  0  0  0  0
   -2.7011   -8.9090   -0.0000 C   0  0  0  0  0  0  0  0  0  0  0  0
   -0.0948   -8.9090   -0.0000 C   0  0  0  0  0  0  0  0  0  0  0  0
   -2.7130  -10.4018   -0.0000 C   0  0  0  0  0  0  0  0  0  0  0  0
   -0.1066  -10.4018   -0.0000 C   0  0  0  0  0  0  0  0  0  0  0  0
   -4.0280  -11.1363   -0.0000 O   0  0  0  0  0  0  0  0  0  0  0  0
   -1.4217  -11.1363   -0.0000 C   0  0  0  0  0  0  0  0  0  0  0  0
    1.1847  -11.1363   -0.0000 O   0  0  0  0  0  0  0  0  0  0  0  0
   -4.0399  -12.6290   -0.0000 C   0  0  0  0  0  0  0  0  0  0  0  0
   -1.4335  -12.6290   -0.0000 C   0  0  0  0  0  0  0  0  0  0  0  0
   -2.7485  -13.3754   -0.0000 C   0  0  0  0  0  0  0  0  0  0  0  0
   -5.3549  -13.3754   -0.0000 C   0  0  0  0  0  0  0  0  0  0  0  0
   -0.1422  -13.3754   -0.0000 O   0  0  0  0  0  0  0  0  0  0  0  0
   -2.7604  -14.8681   -0.0000 O   0  0  0  0  0  0  0  0  0  0  0  0
   -6.6699  -12.6053   -0.0000 C   0  0  0  0  0  0  0  0  0  0  0  0
   -5.3667  -14.8681   -0.0000 C   0  0  0  0  0  0  0  0  0  0  0  0
   -7.9850  -13.3517   -0.0000 C   0  0  0  0  0  0  0  0  0  0  0  0
   -6.6818  -15.6145   -0.0000 C   0  0  0  0  0  0  0  0  0  0  0  0
   -9.4303  -12.8778   -0.0000 O   0  0  0  0  0  0  0  0  0  0  0  0
   -7.9968  -14.8444   -0.0000 C   0  0  0  0  0  0  0  0  0  0  0  0
  -10.3307  -14.0862   -0.0000 C   0  0  0  0  0  0  0  0  0  0  0  0
   -9.4422  -15.2946   -0.0000 O   0  0  0  0  0  0  0  0  0  0  0  0
  1  2  1  0  0  0  0
  2  3  2  0  0  0  0
  2  4  1  0  0  0  0
  3  5  1  0  0  0  0
  4  6  2  0  0  0  0
  5  7  2  0  0  0  0
  7  8  1  0  0  0  0
  8  9  1  0  0  0  0
  9 10  1  0  0  0  0
 10 11  2  0  0  0  0
 10 12  1  0  0  0  0
 11 13  1  0  0  0  0
 12 14  2  0  0  0  0
 13 15  1  0  0  0  0
 13 16  2  0  0  0  0
 14 17  1  0  0  0  0
 15 18  1  0  0  0  0
 16 19  1  0  0  0  0
 18 20  2  0  0  0  0
 18 21  1  0  0  0  0
 19 22  2  0  0  0  0
 20 23  1  0  0  0  0
 21 24  2  0  0  0  0
 21 25  1  0  0  0  0
 24 26  1  0  0  0  0
 25 27  2  0  0  0  0
 26 28  1  0  0  0  0
 26 29  2  0  0  0  0
 28 30  1  0  0  0  0
 29 31  1  0  0  0  0
  6  7  1  0  0  0  0
 14 16  1  0  0  0  0
 19 20  1  0  0  0  0
 27 29  1  0  0  0  0
 30 31  1  0  0  0  0
M  END
>  <MolRegNo>
564254

>  <m>
=

>  <Value>
9300

>  <Unit>
nM

>  <Type>
IC50

>  <Ligand Efficiency>
0.22

>  <Binding Efficiency>
11.47

>  <Surface Efficiency>
5.12

>  <Assay Index>
426934

>  <Assay Category>


>  <Assay Organism>
SARS coronavirus

>  <Target ID>
101075

>  <Target Name>
Replicase polyprotein 1ab

>  <Target Organism>
SARS coronavirus

>  <Target Description>
Target is a single protein chain

>  <Sequence Accession>
P0C6X7

>  <Reference>
Bioorg. Med. Chem. Lett. 19 (16), 4538-4541 (2009)

>  <Pubmed ID>
19625187

>  <DOI>
10.1016/j.bmcl.2009.07.009

>  <InChI-Key>
ZUVXTKFHFLXGGB-UHFFFAOYSA-N

>  <Molecular Formula>
C23H15O7Cl

>  <Monoisotopic Mass>
438.050632

>  <Druglikeness>
-0.12001

$$$$
Compound 680
Actelion Java MolfileCreator 1.0

 15 16  0  0  0  0  0  0  0  0999 V2000
    0.0000   -0.0000   -0.0000 Cl  0  0  0  0  0  0  0  0  0  0  0  0
   -1.3049   -0.7355   -0.0000 C   0  0  0  0  0  0  0  0  0  0  0  0
   -2.6098    0.0237   -0.0000 N   0  0  0  0  0  0  0  0  0  0  0  0
   -1.3167   -2.2302   -0.0000 C   0  0  0  0  0  0  0  0  0  0  0  0
   -3.9147   -0.7118   -0.0000 C   0  0  0  0  0  0  0  0  0  0  0  0
   -2.6335   -2.9656   -0.0000 C   0  0  0  0  0  0  0  0  0  0  0  0
   -5.2195    0.0475   -0.0000 O   0  0  0  0  0  0  0  0  0  0  0  0
   -3.9265   -2.1946   -0.0000 C   0  0  0  0  0  0  0  0  0  0  0  0
   -6.5244   -0.6880   -0.0000 C   0  0  0  0  0  0  0  0  0  0  0  0
   -6.5363   -2.1709   -0.0000 O   0  0  0  0  0  0  0  0  0  0  0  0
   -7.8293    0.0712   -0.0000 C   0  0  0  0  0  0  0  0  0  0  0  0
   -9.2054   -0.5220   -0.0000 S   0  0  0  0  0  0  0  0  0  0  0  0
   -7.9954    1.5659   -0.0000 C   0  0  0  0  0  0  0  0  0  0  0  0
  -10.2137    0.6050   -0.0000 C   0  0  0  0  0  0  0  0  0  0  0  0
   -9.4663    1.8862   -0.0000 C   0  0  0  0  0  0  0  0  0  0  0  0
  1  2  1  0  0  0  0
  2  3  2  0  0  0  0
  2  4  1  0  0  0  0
  3  5  1  0  0  0  0
  4  6  2  0  0  0  0
  5  7  1  0  0  0  0
  5  8  2  0  0  0  0
  7  9  1  0  0  0  0
  9 10  2  0  0  0  0
  9 11  1  0  0  0  0
 11 12  1  0  0  0  0
 11 13  2  0  0  0  0
 12 14  1  0  0  0  0
 13 15  1  0  0  0  0
  6  8  1  0  0  0  0
 14 15  2  0  0  0  0
M  END
>  <MolRegNo>
371824

>  <m>
<

>  <Value>
10

>  <Unit>
%

>  <Type>
Inhibition

>  <Ligand Efficiency>


>  <Binding Efficiency>


>  <Surface Efficiency>


>  <Assay Index>
278390

>  <Assay Category>


>  <Assay Organism>
SARS coronavirus

>  <Target ID>
20012

>  <Target Name>
SARS coronavirus 3C-like proteinase

>  <Target Organism>
SARS coronavirus

>  <Target Description>
Target is a single protein chain

>  <Sequence Accession>
P0C6U8

>  <Reference>
J. Med. Chem. 50 (8), 1850-1864 (2007)

>  <Pubmed ID>
17381079

>  <DOI>
10.1021/jm061425k

>  <InChI-Key>
ZVGSYTBMLICAHH-UHFFFAOYSA-N

>  <Molecular Formula>
C10H6NO2ClS

>  <Monoisotopic Mass>
238.980776

>  <Druglikeness>
1.8212

$$$$
