
  xtb     03232013363D
 energy: -129.439267117626 gnorm: 0.000575692151 xtb: 6.3.0 (preview)
 82 85  0     0  0            999 V2000
   -2.6127    5.8037    4.0573  C  0  0  0  0  0  0  0  0  0  0  0  0
   -1.5121    6.0645    4.8947  C  0  0  0  0  0  0  0  0  0  0  0  0
   -0.3810    5.3151    4.7486  C  0  0  0  0  0  0  0  0  0  0  0  0
   -0.3091    4.2643    3.7563  C  0  0  0  0  0  0  0  0  0  0  0  0
   -1.4250    4.0644    2.9778  N  0  0  0  0  0  0  0  0  0  0  0  0
   -2.5406    4.8236    3.1196  C  0  0  0  0  0  0  0  0  0  0  0  0
    0.6920    3.5586    3.5974  O  0  0  0  0  0  0  0  0  0  0  0  0
    0.7898    5.4492    5.4739  N  0  0  0  0  0  0  0  0  0  0  0  0
   -1.2600    3.0008    1.9817  C  0  0  0  0  0  0  0  0  0  0  0  0
    0.0226    3.3521    1.2126  C  0  0  0  0  0  0  0  0  0  0  0  0
    0.9732    2.3975    0.9763  N  0  0  0  0  0  0  0  0  0  0  0  0
   -2.4170    2.9196    0.9819  C  0  0  0  0  0  0  0  0  0  0  0  0
   -2.2183    1.8421   -0.0618  C  0  0  0  0  0  0  0  0  0  0  0  0
   -3.4167    1.3790   -0.8371  C  0  0  0  0  0  0  0  0  0  0  0  0
   -2.7734    0.4672    0.1601  C  0  0  0  0  0  0  0  0  0  0  0  0
    0.1303    4.4421    0.6939  O  0  0  0  0  0  0  0  0  0  0  0  0
    1.3093    1.2381    1.8064  C  0  0  0  0  0  0  0  0  0  0  0  0
    0.3699    0.0413    1.6120  C  0  0  0  0  0  0  0  0  0  0  0  0
    0.4164   -0.9190    2.7971  C  0  0  0  0  0  0  0  0  0  0  0  0
   -0.6589   -2.0002    2.6511  C  0  0  0  0  0  0  0  0  0  0  0  0
    1.7111   -1.7186    2.9686  C  0  0  0  0  0  0  0  0  0  0  0  0
   -0.1145   -3.1624    3.0495  N  0  0  0  0  0  0  0  0  0  0  0  0
    1.2419   -3.0644    3.5360  C  0  0  0  0  0  0  0  0  0  0  0  0
   -1.7902   -1.8398    2.2536  O  0  0  0  0  0  0  0  0  0  0  0  0
    2.7424    0.8663    1.4073  C  0  0  0  0  0  0  0  0  0  0  0  0
    3.7042    1.1651    2.0588  O  0  0  0  0  0  0  0  0  0  0  0  0
    2.8608    0.0321    0.1205  C  0  0  0  0  0  0  0  0  0  0  0  0
    3.3984   -1.0565    0.1438  O  0  0  0  0  0  0  0  0  0  0  0  0
    2.3348    0.5965   -0.9822  N  0  0  0  0  0  0  0  0  0  0  0  0
    2.2250   -0.1333   -2.2366  C  0  0  0  0  0  0  0  0  0  0  0  0
    0.8378   -0.7068   -2.3787  C  0  0  0  0  0  0  0  0  0  0  0  0
   -0.1103   -0.0957   -3.1869  C  0  0  0  0  0  0  0  0  0  0  0  0
    0.4809   -1.8317   -1.6430  C  0  0  0  0  0  0  0  0  0  0  0  0
   -0.8048   -2.3361   -1.7148  C  0  0  0  0  0  0  0  0  0  0  0  0
   -1.7437   -1.7267   -2.5316  C  0  0  0  0  0  0  0  0  0  0  0  0
   -1.3929   -0.6104   -3.2712  C  0  0  0  0  0  0  0  0  0  0  0  0
    1.0640    6.3274    6.4837  C  0  0  0  0  0  0  0  0  0  0  0  0
    0.2839    7.1277    6.9362  O  0  0  0  0  0  0  0  0  0  0  0  0
    2.3307    6.1325    6.8746  O  0  0  0  0  0  0  0  0  0  0  0  0
    2.9072    6.9266    7.9410  C  0  0  0  0  0  0  0  0  0  0  0  0
    2.1455    6.6909    9.2447  C  0  0  0  0  0  0  0  0  0  0  0  0
    2.9032    8.4070    7.5621  C  0  0  0  0  0  0  0  0  0  0  0  0
    4.3402    6.4055    8.0533  C  0  0  0  0  0  0  0  0  0  0  0  0
   -3.5122    6.3875    4.1532  H  0  0  0  0  0  0  0  0  0  0  0  0
   -1.5524    6.8448    5.6358  H  0  0  0  0  0  0  0  0  0  0  0  0
   -3.3668    4.6165    2.4632  H  0  0  0  0  0  0  0  0  0  0  0  0
    1.5250    4.8134    5.1780  H  0  0  0  0  0  0  0  0  0  0  0  0
   -1.1454    2.0608    2.5278  H  0  0  0  0  0  0  0  0  0  0  0  0
    1.7946    2.8601    0.5958  H  0  0  0  0  0  0  0  0  0  0  0  0
   -2.4973    3.8881    0.4793  H  0  0  0  0  0  0  0  0  0  0  0  0
   -3.3460    2.7096    1.5156  H  0  0  0  0  0  0  0  0  0  0  0  0
   -1.2871    1.9233   -0.6095  H  0  0  0  0  0  0  0  0  0  0  0  0
   -3.2922    1.1588   -1.8854  H  0  0  0  0  0  0  0  0  0  0  0  0
   -4.3760    1.8108   -0.5951  H  0  0  0  0  0  0  0  0  0  0  0  0
   -3.2923    0.2633    1.0836  H  0  0  0  0  0  0  0  0  0  0  0  0
   -2.2208   -0.3827   -0.2079  H  0  0  0  0  0  0  0  0  0  0  0  0
    1.3165    1.5585    2.8576  H  0  0  0  0  0  0  0  0  0  0  0  0
    0.6220   -0.5026    0.6999  H  0  0  0  0  0  0  0  0  0  0  0  0
   -0.6588    0.3780    1.4973  H  0  0  0  0  0  0  0  0  0  0  0  0
    0.1863   -0.3654    3.7153  H  0  0  0  0  0  0  0  0  0  0  0  0
    2.4256   -1.2264    3.6242  H  0  0  0  0  0  0  0  0  0  0  0  0
    2.1893   -1.8745    2.0021  H  0  0  0  0  0  0  0  0  0  0  0  0
   -0.6503   -4.0122    3.1155  H  0  0  0  0  0  0  0  0  0  0  0  0
    1.2580   -3.0656    4.6336  H  0  0  0  0  0  0  0  0  0  0  0  0
    1.8449   -3.9014    3.1790  H  0  0  0  0  0  0  0  0  0  0  0  0
    1.7711    1.4292   -0.8951  H  0  0  0  0  0  0  0  0  0  0  0  0
    2.9701   -0.9315   -2.2012  H  0  0  0  0  0  0  0  0  0  0  0  0
    2.4545    0.5472   -3.0598  H  0  0  0  0  0  0  0  0  0  0  0  0
    0.1581    0.7800   -3.7611  H  0  0  0  0  0  0  0  0  0  0  0  0
    1.2208   -2.3132   -1.0199  H  0  0  0  0  0  0  0  0  0  0  0  0
   -1.0769   -3.2034   -1.1323  H  0  0  0  0  0  0  0  0  0  0  0  0
   -2.7468   -2.1214   -2.5895  H  0  0  0  0  0  0  0  0  0  0  0  0
   -2.1190   -0.1381   -3.9166  H  0  0  0  0  0  0  0  0  0  0  0  0
    2.1277    5.6291    9.4806  H  0  0  0  0  0  0  0  0  0  0  0  0
    2.6345    7.2242   10.0549  H  0  0  0  0  0  0  0  0  0  0  0  0
    1.1236    7.0481    9.1525  H  0  0  0  0  0  0  0  0  0  0  0  0
    3.4285    8.9794    8.3212  H  0  0  0  0  0  0  0  0  0  0  0  0
    1.8835    8.7736    7.4851  H  0  0  0  0  0  0  0  0  0  0  0  0
    3.4010    8.5485    6.6052  H  0  0  0  0  0  0  0  0  0  0  0  0
    4.3333    5.3427    8.2782  H  0  0  0  0  0  0  0  0  0  0  0  0
    4.8651    6.5557    7.1138  H  0  0  0  0  0  0  0  0  0  0  0  0
    4.8664    6.9329    8.8431  H  0  0  0  0  0  0  0  0  0  0  0  0
  1  2  1  0  0  0  0
  2  3  2  0  0  0  0
  3  4  1  0  0  0  0
  4  5  1  0  0  0  0
  5  6  1  0  0  0  0
  1  6  2  0  0  0  0
  4  7  2  0  0  0  0
  3  8  1  0  0  0  0
  5  9  1  0  0  0  0
  9 10  1  0  0  0  0
 10 11  1  0  0  0  0
  9 12  1  0  0  0  0
 12 13  1  0  0  0  0
 14 15  1  0  0  0  0
 13 14  1  0  0  0  0
 15 13  1  0  0  0  0
 10 16  2  0  0  0  0
 11 17  1  0  0  0  0
 17 18  1  0  0  0  0
 18 19  1  0  0  0  0
 19 20  1  0  0  0  0
 19 21  1  0  0  0  0
 20 22  1  0  0  0  0
 21 23  1  0  0  0  0
 22 23  1  0  0  0  0
 20 24  2  0  0  0  0
 17 25  1  0  0  0  0
 25 26  2  0  0  0  0
 25 27  1  0  0  0  0
 27 28  2  0  0  0  0
 27 29  1  0  0  0  0
 29 30  1  0  0  0  0
 30 31  1  0  0  0  0
 33 34  1  0  0  0  0
 34 35  2  0  0  0  0
 35 36  1  0  0  0  0
 32 36  2  0  0  0  0
 32 31  1  0  0  0  0
 31 33  2  0  0  0  0
  8 37  1  0  0  0  0
 37 38  2  0  0  0  0
 37 39  1  0  0  0  0
 39 40  1  0  0  0  0
 40 41  1  0  0  0  0
 40 42  1  0  0  0  0
 40 43  1  0  0  0  0
  1 44  1  0  0  0  0
  2 45  1  0  0  0  0
  6 46  1  0  0  0  0
  8 47  1  0  0  0  0
  9 48  1  0  0  0  0
 11 49  1  0  0  0  0
 12 50  1  0  0  0  0
 12 51  1  0  0  0  0
 13 52  1  0  0  0  0
 14 53  1  0  0  0  0
 14 54  1  0  0  0  0
 15 55  1  0  0  0  0
 15 56  1  0  0  0  0
 17 57  1  0  0  0  0
 18 58  1  0  0  0  0
 18 59  1  0  0  0  0
 19 60  1  0  0  0  0
 21 61  1  0  0  0  0
 21 62  1  0  0  0  0
 22 63  1  0  0  0  0
 23 64  1  0  0  0  0
 23 65  1  0  0  0  0
 29 66  1  0  0  0  0
 30 67  1  0  0  0  0
 30 68  1  0  0  0  0
 32 69  1  0  0  0  0
 33 70  1  0  0  0  0
 34 71  1  0  0  0  0
 35 72  1  0  0  0  0
 36 73  1  0  0  0  0
 41 74  1  0  0  0  0
 41 75  1  0  0  0  0
 41 76  1  0  0  0  0
 42 77  1  0  0  0  0
 42 78  1  0  0  0  0
 42 79  1  0  0  0  0
 43 80  1  0  0  0  0
 43 81  1  0  0  0  0
 43 82  1  0  0  0  0
M  END
