
  Mrv1823 03232012402D          

 43 46  0  0  1  0            999 V2000
    9.9222  -11.9929    0.0000 C   0  0  0  0  0  0  0  0  0  0  0  0
    9.2077  -12.4054    0.0000 C   0  0  0  0  0  0  0  0  0  0  0  0
    9.2077  -13.2304    0.0000 C   0  0  0  0  0  0  0  0  0  0  0  0
    9.9222  -13.6429    0.0000 C   0  0  0  0  0  0  0  0  0  0  0  0
   10.6366  -13.2304    0.0000 N   0  0  0  0  0  0  0  0  0  0  0  0
   10.6366  -12.4054    0.0000 C   0  0  0  0  0  0  0  0  0  0  0  0
    9.9222  -14.4679    0.0000 O   0  0  0  0  0  0  0  0  0  0  0  0
    8.5403  -13.7153    0.0000 N   0  0  0  0  0  0  0  0  0  0  0  0
   11.3285  -13.6797    0.0000 C   0  0  2  0  0  0  0  0  0  0  0  0
   12.0636  -13.3052    0.0000 C   0  0  0  0  0  0  0  0  0  0  0  0
   12.7555  -13.7545    0.0000 N   0  0  0  0  0  0  0  0  0  0  0  0
   11.3285  -14.5047    0.0000 C   0  0  0  0  0  0  0  0  0  0  0  0
   11.9416  -15.0568    0.0000 C   0  0  0  0  0  0  0  0  0  0  0  0
   12.1966  -15.8414    0.0000 C   0  0  0  0  0  0  0  0  0  0  0  0
   12.7486  -15.2283    0.0000 C   0  0  0  0  0  0  0  0  0  0  0  0
   12.0636  -12.4802    0.0000 O   0  0  0  0  0  0  0  0  0  0  0  0
   13.5092  -13.4189    0.0000 C   0  0  1  0  0  0  0  0  0  0  0  0
   13.5092  -12.5939    0.0000 C   0  0  0  0  0  0  0  0  0  0  0  0
   14.2237  -12.1814    0.0000 C   0  0  1  0  0  0  0  0  0  0  0  0
   13.9687  -11.3968    0.0000 C   0  0  0  0  0  0  0  0  0  0  0  0
   15.0487  -12.1814    0.0000 C   0  0  0  0  0  0  0  0  0  0  0  0
   14.6362  -10.9119    0.0000 N   0  0  0  0  0  0  0  0  0  0  0  0
   15.3036  -11.3968    0.0000 C   0  0  0  0  0  0  0  0  0  0  0  0
   13.1985  -11.1012    0.0000 O   0  0  0  0  0  0  0  0  0  0  0  0
   14.2794  -13.7146    0.0000 C   0  0  0  0  0  0  0  0  0  0  0  0
   14.2794  -14.5396    0.0000 O   0  0  0  0  0  0  0  0  0  0  0  0
   15.0331  -13.3790    0.0000 C   0  0  0  0  0  0  0  0  0  0  0  0
   15.0331  -12.5540    0.0000 O   0  0  0  0  0  0  0  0  0  0  0  0
   15.7475  -13.7915    0.0000 N   0  0  0  0  0  0  0  0  0  0  0  0
   16.4620  -13.3790    0.0000 C   0  0  0  0  0  0  0  0  0  0  0  0
   17.1765  -13.7915    0.0000 C   0  0  0  0  0  0  0  0  0  0  0  0
   17.8910  -13.3790    0.0000 C   0  0  0  0  0  0  0  0  0  0  0  0
   17.1765  -14.6166    0.0000 C   0  0  0  0  0  0  0  0  0  0  0  0
   17.8910  -15.0291    0.0000 C   0  0  0  0  0  0  0  0  0  0  0  0
   18.6054  -14.6166    0.0000 C   0  0  0  0  0  0  0  0  0  0  0  0
   18.6054  -13.7915    0.0000 C   0  0  0  0  0  0  0  0  0  0  0  0
    7.8052  -13.3408    0.0000 C   0  0  0  0  0  0  0  0  0  0  0  0
    7.7914  -12.5169    0.0000 O   0  0  0  0  0  0  0  0  0  0  0  0
    7.0907  -13.7533    0.0000 O   0  0  0  0  0  0  0  0  0  0  0  0
    6.3556  -13.3787    0.0000 C   0  0  0  0  0  0  0  0  0  0  0  0
    6.3556  -12.5537    0.0000 C   0  0  0  0  0  0  0  0  0  0  0  0
    5.6637  -13.8281    0.0000 C   0  0  0  0  0  0  0  0  0  0  0  0
    5.6205  -13.0042    0.0000 C   0  0  0  0  0  0  0  0  0  0  0  0
  1  2  1  0  0  0  0
  2  3  2  0  0  0  0
  3  4  1  0  0  0  0
  4  5  1  0  0  0  0
  5  6  1  0  0  0  0
  1  6  2  0  0  0  0
  4  7  2  0  0  0  0
  3  8  1  0  0  0  0
  5  9  1  0  0  0  0
  9 10  1  0  0  0  0
 10 11  1  0  0  0  0
  9 12  1  6  0  0  0
 12 13  1  0  0  0  0
 14 15  1  0  0  0  0
 13 14  1  0  0  0  0
 15 13  1  0  0  0  0
 10 16  2  0  0  0  0
 11 17  1  0  0  0  0
 17 18  1  1  0  0  0
 18 19  1  0  0  0  0
 19 20  1  0  0  0  0
 19 21  1  1  0  0  0
 20 22  1  0  0  0  0
 21 23  1  0  0  0  0
 22 23  1  0  0  0  0
 20 24  2  0  0  0  0
 17 25  1  0  0  0  0
 25 26  2  0  0  0  0
 25 27  1  0  0  0  0
 27 28  2  0  0  0  0
 27 29  1  0  0  0  0
 29 30  1  0  0  0  0
 30 31  1  0  0  0  0
 33 34  1  0  0  0  0
 34 35  2  0  0  0  0
 35 36  1  0  0  0  0
 32 36  2  0  0  0  0
 32 31  1  0  0  0  0
 31 33  2  0  0  0  0
  8 37  1  0  0  0  0
 37 38  2  0  0  0  0
 37 39  1  0  0  0  0
 39 40  1  0  0  0  0
 40 41  1  0  0  0  0
 40 42  1  0  0  0  0
 40 43  1  0  0  0  0
M  END
