@<TRIPOS>MOLECULE
*****
 82 85 0 0 0
SMALL
GASTEIGER
****
energy: -129.439267117626 gnorm: 0.000575692151 xtb: 6.3.0 (preview)
@<TRIPOS>ATOM
      1 C          -2.6127    5.8037    4.0573 C.ar    1  UNL1       -0.0435
      2 C          -1.5121    6.0645    4.8947 C.ar    1  UNL1       -0.0337
      3 C          -0.3810    5.3151    4.7486 C.ar    1  UNL1        0.1013
      4 C          -0.3091    4.2643    3.7563 C.ar    1  UNL1        0.2734
      5 N          -1.4250    4.0644    2.9778 N.ar    1  UNL1       -0.3018
      6 C          -2.5406    4.8236    3.1196 C.ar    1  UNL1        0.0089
      7 O           0.6920    3.5586    3.5974 O.2     1  UNL1       -0.2656
      8 N           0.7898    5.4492    5.4739 N.am    1  UNL1       -0.2463
      9 C          -1.2600    3.0008    1.9817 C.3     1  UNL1        0.1134
     10 C           0.0226    3.3521    1.2126 C.2     1  UNL1        0.2366
     11 N           0.9732    2.3975    0.9763 N.am    1  UNL1       -0.3034
     12 C          -2.4170    2.9196    0.9819 C.3     1  UNL1       -0.0207
     13 C          -2.2183    1.8421   -0.0618 C.3     1  UNL1       -0.0387
     14 C          -3.4167    1.3790   -0.8371 C.3     1  UNL1       -0.0499
     15 C          -2.7734    0.4672    0.1601 C.3     1  UNL1       -0.0499
     16 O           0.1303    4.4421    0.6939 O.2     1  UNL1       -0.2735
     17 C           1.3093    1.2381    1.8064 C.3     1  UNL1        0.0914
     18 C           0.3699    0.0413    1.6120 C.3     1  UNL1       -0.0159
     19 C           0.4164   -0.9190    2.7971 C.3     1  UNL1        0.0390
     20 C          -0.6589   -2.0002    2.6511 C.2     1  UNL1        0.2162
     21 C           1.7111   -1.7186    2.9686 C.3     1  UNL1       -0.0262
     22 N          -0.1145   -3.1624    3.0495 N.am    1  UNL1       -0.3151
     23 C           1.2419   -3.0644    3.5360 C.3     1  UNL1        0.0123
     24 O          -1.7902   -1.8398    2.2536 O.2     1  UNL1       -0.2755
     25 C           2.7424    0.8663    1.4073 C.2     1  UNL1        0.2372
     26 O           3.7042    1.1651    2.0588 O.2     1  UNL1       -0.2852
     27 C           2.8608    0.0321    0.1205 C.2     1  UNL1        0.2817
     28 O           3.3984   -1.0565    0.1438 O.2     1  UNL1       -0.2670
     29 N           2.3348    0.5965   -0.9822 N.am    1  UNL1       -0.3048
     30 C           2.2250   -0.1333   -2.2366 C.3     1  UNL1        0.0372
     31 C           0.8378   -0.7068   -2.3787 C.ar    1  UNL1       -0.0303
     32 C          -0.1103   -0.0957   -3.1869 C.ar    1  UNL1       -0.0571
     33 C           0.4809   -1.8317   -1.6430 C.ar    1  UNL1       -0.0571
     34 C          -0.8048   -2.3361   -1.7148 C.ar    1  UNL1       -0.0615
     35 C          -1.7437   -1.7267   -2.5316 C.ar    1  UNL1       -0.0617
     36 C          -1.3929   -0.6104   -3.2712 C.ar    1  UNL1       -0.0615
     37 C           1.0640    6.3274    6.4837 C.2     1  UNL1        0.4052
     38 O           0.2839    7.1277    6.9362 O.2     1  UNL1       -0.2261
     39 O           2.3307    6.1325    6.8746 O.3     1  UNL1       -0.4444
     40 C           2.9072    6.9266    7.9410 C.3     1  UNL1        0.1068
     41 C           2.1455    6.6909    9.2447 C.3     1  UNL1       -0.0253
     42 C           2.9032    8.4070    7.5621 C.3     1  UNL1       -0.0253
     43 C           4.3402    6.4055    8.0533 C.3     1  UNL1       -0.0253
     44 H          -3.5122    6.3875    4.1532 H       1  UNL1        0.0633
     45 H          -1.5524    6.8448    5.6358 H       1  UNL1        0.0638
     46 H          -3.3668    4.6165    2.4632 H       1  UNL1        0.0810
     47 H           1.5250    4.8134    5.1780 H       1  UNL1        0.1583
     48 H          -1.1454    2.0608    2.5278 H       1  UNL1        0.0625
     49 H           1.7946    2.8601    0.5958 H       1  UNL1        0.1495
     50 H          -2.4973    3.8881    0.4793 H       1  UNL1        0.0293
     51 H          -3.3460    2.7096    1.5156 H       1  UNL1        0.0293
     52 H          -1.2871    1.9233   -0.6095 H       1  UNL1        0.0302
     53 H          -3.2922    1.1588   -1.8854 H       1  UNL1        0.0268
     54 H          -4.3760    1.8108   -0.5951 H       1  UNL1        0.0268
     55 H          -3.2923    0.2633    1.0836 H       1  UNL1        0.0268
     56 H          -2.2208   -0.3827   -0.2079 H       1  UNL1        0.0268
     57 H           1.3165    1.5585    2.8576 H       1  UNL1        0.0583
     58 H           0.6220   -0.5026    0.6999 H       1  UNL1        0.0295
     59 H          -0.6588    0.3780    1.4973 H       1  UNL1        0.0295
     60 H           0.1863   -0.3654    3.7153 H       1  UNL1        0.0395
     61 H           2.4256   -1.2264    3.6242 H       1  UNL1        0.0288
     62 H           2.1893   -1.8745    2.0021 H       1  UNL1        0.0288
     63 H          -0.6503   -4.0122    3.1155 H       1  UNL1        0.1487
     64 H           1.2580   -3.0656    4.6336 H       1  UNL1        0.0462
     65 H           1.8449   -3.9014    3.1790 H       1  UNL1        0.0462
     66 H           1.7711    1.4292   -0.8951 H       1  UNL1        0.1494
     67 H           2.9701   -0.9315   -2.2012 H       1  UNL1        0.0512
     68 H           2.4545    0.5472   -3.0598 H       1  UNL1        0.0512
     69 H           0.1581    0.7800   -3.7611 H       1  UNL1        0.0621
     70 H           1.2208   -2.3132   -1.0199 H       1  UNL1        0.0621
     71 H          -1.0769   -3.2034   -1.1323 H       1  UNL1        0.0618
     72 H          -2.7468   -2.1214   -2.5895 H       1  UNL1        0.0618
     73 H          -2.1190   -0.1381   -3.9166 H       1  UNL1        0.0618
     74 H           2.1277    5.6291    9.4806 H       1  UNL1        0.0268
     75 H           2.6345    7.2242   10.0549 H       1  UNL1        0.0268
     76 H           1.1236    7.0481    9.1525 H       1  UNL1        0.0268
     77 H           3.4285    8.9794    8.3212 H       1  UNL1        0.0268
     78 H           1.8835    8.7736    7.4851 H       1  UNL1        0.0268
     79 H           3.4010    8.5485    6.6052 H       1  UNL1        0.0268
     80 H           4.3333    5.3427    8.2782 H       1  UNL1        0.0268
     81 H           4.8651    6.5557    7.1138 H       1  UNL1        0.0268
     82 H           4.8664    6.9329    8.8431 H       1  UNL1        0.0268
@<TRIPOS>BOND
     1     1     2   ar
     2     2     3   ar
     3     3     4   ar
     4     4     5   ar
     5     5     6   ar
     6     1     6   ar
     7     4     7    2
     8     3     8    1
     9     5     9    1
    10     9    10    1
    11    10    11   am
    12     9    12    1
    13    12    13    1
    14    14    15    1
    15    13    14    1
    16    15    13    1
    17    10    16    2
    18    11    17    1
    19    17    18    1
    20    18    19    1
    21    19    20    1
    22    19    21    1
    23    20    22   am
    24    21    23    1
    25    22    23    1
    26    20    24    2
    27    17    25    1
    28    25    26    2
    29    25    27    1
    30    27    28    2
    31    27    29   am
    32    29    30    1
    33    30    31    1
    34    33    34   ar
    35    34    35   ar
    36    35    36   ar
    37    32    36   ar
    38    32    31   ar
    39    31    33   ar
    40     8    37   am
    41    37    38    2
    42    37    39    1
    43    39    40    1
    44    40    41    1
    45    40    42    1
    46    40    43    1
    47     1    44    1
    48     2    45    1
    49     6    46    1
    50     8    47    1
    51     9    48    1
    52    11    49    1
    53    12    50    1
    54    12    51    1
    55    13    52    1
    56    14    53    1
    57    14    54    1
    58    15    55    1
    59    15    56    1
    60    17    57    1
    61    18    58    1
    62    18    59    1
    63    19    60    1
    64    21    61    1
    65    21    62    1
    66    22    63    1
    67    23    64    1
    68    23    65    1
    69    29    66    1
    70    30    67    1
    71    30    68    1
    72    32    69    1
    73    33    70    1
    74    34    71    1
    75    35    72    1
    76    36    73    1
    77    41    74    1
    78    41    75    1
    79    41    76    1
    80    42    77    1
    81    42    78    1
    82    42    79    1
    83    43    80    1
    84    43    81    1
    85    43    82    1
